
**** 11/06/24 20:23:49 **** PSpice 23.1.0 (30 January 2024) *** ID# 0 ********

 ** Profile: "SCHEMATIC1-sim_psp"  [ c:\cds_spb_home\cdssetup\project4\project4-pspicefiles\schematic1\sim_psp.sim ] 


 ****     CIRCUIT DESCRIPTION


******************************************************************************




** Creating circuit file "sim_psp.cir" 
** WARNING: THIS AUTOMATICALLY GENERATED FILE MAY BE OVERWRITTEN BY SUBSEQUENT SIMULATIONS

*Libraries: 
* Profile Libraries :
* Local Libraries :
* From [PSPICE NETLIST] section of C:\cds_spb_home\cdssetup\OrCAD_PSpiceTIPSpice_Install\23.1.0\PSpice.ini file:
.lib "nom_pspti.lib" 
.lib "nom.lib" 

*Analysis directives: 
.TRAN  0 4us 0 
.OPTIONS ADVCONV
.OPTIONS FILEMODELSEARCH
.OPTIONS ABSTOL= 1.0n
.OPTIONS ITL4= 1000
.OPTIONS RELTOL= 0.01
.PROBE64 V(alias(*)) I(alias(*)) W(alias(*)) D(alias(*)) NOISE(alias(*)) 
.INC "..\SCHEMATIC1.net" 



**** INCLUDING SCHEMATIC1.net ****
* source PROJECT4
V_V1         VCC 0 12Vdc
R_R1         N00167 VCC  2k TC=0,0 
R_R2         0 N00167  10k TC=0,0 
C_C1         0 N00167  1u  TC=0,0 
C_C2         0 N00415  800p  TC=0,0 
X_U1         N00415 N00579 VCC 0 N00579 OPA2156
V_V2         N08043 0 11Vdc
R_R3         N01127 VCC  500k TC=0,0 
R_R4         N09487 VCC  1k TC=0,0 
M_M1         N09487 0 N01127 N01127 IRF123
X_U3         N01815 N01771 VCC 0 N01750 OPA2156
V_V3         N01815 0 2.4Vdc
X_Q7         N00415 N26891 N01754 BFG135/PLP 
X_Q8         N03553 N27016 N01754 BFG135/PLP 
X_Q10         N01754 N01750 N01771 BFG135/PLP 
R_R6         N03553 VCC  150 TC=0,0 
X_U5         N08043 N01127 VCC 0 N01016 OPA2156
X_Q11         N00415 N01016 N01127 BFT93/INF
X_D4         N00415 N00167 BAT54/PLP
D_D6         0 N00167 BZX84C9V1/PLP 
V_V4         N26891 0  
+PULSE 0V 5V 2.45u 300p 300p 0.05u 4u
V_V5         N27016 0  
+PULSE 0V 5V 0 200p 200p 2.45u 2.5u
R_R7         0 N01771  100 TC=0,0 

**** RESUMING sim_psp.cir ****
.END

**** 11/06/24 20:23:49 **** PSpice 23.1.0 (30 January 2024) *** ID# 0 ********

 ** Profile: "SCHEMATIC1-sim_psp"  [ c:\cds_spb_home\cdssetup\project4\project4-pspicefiles\schematic1\sim_psp.sim ] 


 ****     Diode MODEL PARAMETERS


******************************************************************************




               X_U1.X_U1.DVN   X_U3.X_U1.DVN   X_U5.X_U1.DVN   
          IS  100.000000E-18  100.000000E-18  100.000000E-18 
          KF    1.000000E-12    1.000000E-12    1.000000E-12 


**** 11/06/24 20:23:49 **** PSpice 23.1.0 (30 January 2024) *** ID# 0 ********

 ** Profile: "SCHEMATIC1-sim_psp"  [ c:\cds_spb_home\cdssetup\project4\project4-pspicefiles\schematic1\sim_psp.sim ] 


 ****     Resistor MODEL PARAMETERS


******************************************************************************




               X_U1.R_NOISELESS 
  T_Measured   27            
   T_Current -273.15         
           R    1            


               X_U3.R_NOISELESS 
  T_Measured   27            
   T_Current -273.15         
           R    1            


               X_U5.R_NOISELESS 
  T_Measured   27            
   T_Current -273.15         
           R    1            


**** 11/06/24 20:23:49 **** PSpice 23.1.0 (30 January 2024) *** ID# 0 ********

 ** Profile: "SCHEMATIC1-sim_psp"  [ c:\cds_spb_home\cdssetup\project4\project4-pspicefiles\schematic1\sim_psp.sim ] 


 ****     Voltage Controlled Switch MODEL PARAMETERS


******************************************************************************




               X_U1.X_S1._S1   X_U1.X_S2._S2   
         RON     .01             .01         
        ROFF    1.000000E+12    1.000000E+12 
         VON     .01             .01         
        VOFF    0               0            


               X_U1.X_U21.ESD_SW 
         RON   50            
        ROFF    1.000000E+12 
         VON     .5          
        VOFF     .45         


               X_U1.X_U25.OL_SW 
         RON    1.000000E-03 
        ROFF    1.000000E+12 
         VON     .9          
        VOFF     .8          


               X_U1.X_U5.ESD_SW                X_U3.X_S1._S1   X_U3.X_S2._S2   
         RON   50                                .01             .01         
        ROFF    1.000000E+12                    1.000000E+12    1.000000E+12 
         VON     .5                              .01             .01         
        VOFF     .45                            0               0            


               X_U3.X_U21.ESD_SW 
         RON   50            
        ROFF    1.000000E+12 
         VON     .5          
        VOFF     .45         


               X_U3.X_U25.OL_SW 
         RON    1.000000E-03 
        ROFF    1.000000E+12 
         VON     .9          
        VOFF     .8          


               X_U3.X_U5.ESD_SW                X_U5.X_S1._S1   X_U5.X_S2._S2   
         RON   50                                .01             .01         
        ROFF    1.000000E+12                    1.000000E+12    1.000000E+12 
         VON     .5                              .01             .01         
        VOFF     .45                            0               0            


               X_U5.X_U21.ESD_SW 
         RON   50            
        ROFF    1.000000E+12 
         VON     .5          
        VOFF     .45         


               X_U5.X_U25.OL_SW 
         RON    1.000000E-03 
        ROFF    1.000000E+12 
         VON     .9          
        VOFF     .8          


               X_U5.X_U5.ESD_SW 
         RON   50            
        ROFF    1.000000E+12 
         VON     .5          
        VOFF     .45         


WARNING(ORPSIM-16534): Using high values of ITL4 for Speed Level > 0 may increase total simulation job time.

Starting pseudo-transient algorithm.

INFO(ORPSIM-16594): To improve Pseudotransient Convergence and Performance, set following options to relax stabilization criteria for capacitor currents and inductor voltages: PTRANABSTOL=1e-5, PTRANVNTOL=1e-4

**** 11/06/24 20:23:49 **** PSpice 23.1.0 (30 January 2024) *** ID# 0 ********

 ** Profile: "SCHEMATIC1-sim_psp"  [ c:\cds_spb_home\cdssetup\project4\project4-pspicefiles\schematic1\sim_psp.sim ] 


 ****     INITIAL TRANSIENT SOLUTION       TEMPERATURE =   27.000 DEG C


******************************************************************************



 NODE   VOLTAGE     NODE   VOLTAGE     NODE   VOLTAGE     NODE   VOLTAGE


(  VCC)   12.0000  (N00167)    9.0405 (N00415)    9.1219 (N00579)    9.1219     

(N01016)   10.4110 (N01127)   11.0000 (N01750)    3.3403 (N01754)    2.4001     

(N01771)    2.4000 (N01815)    2.4000 (N03553)   12.0000 (N08043)   11.0000     

(N09487)   11.9970 (N26891)    0.0000 (N27016)    0.0000 (X_U1.MID)    5.9997   

(X_U1.V11)    5.9997                  (X_U1.V12)    5.9997                      

(X_U3.MID)    5.9997                  (X_U3.V11)    5.9997                      

(X_U3.V12)    5.9997                  (X_U5.MID)    5.9997                      

(X_U5.V11)    5.9997                  (X_U5.V12)    5.9997                      

(X_U1.ESDN)    9.1219                 (X_U1.ESDP)    9.1219                     

(X_U1.VCLP)    9.3036                 (X_U3.ESDN)    2.4000                     

(X_U3.ESDP)    2.4000                 (X_U3.VCLP)    5.7242                     

(X_U5.ESDN)   11.0000                 (X_U5.ESDP)   11.0000                     

(X_U5.VCLP)   10.6670                 (X_U1.CLAMP)    9.3048                    

(X_U1.VCC_B)   12.0000                (X_U1.VEE_B) 6.000E-06                    

(X_U1.VIMON)    5.9997                (X_U3.CLAMP)    5.7241                    

(X_U3.VCC_B)   12.0000                (X_U3.VEE_B) 6.000E-06                    

(X_U3.VIMON)   30.0000                (X_U5.CLAMP)   10.6690                    

(X_U5.VCC_B)   12.0000                (X_U5.VEE_B) 6.000E-06                    

(X_U5.VIMON)    5.9994                (X_U1.VOUT_S)    9.1219                   

(X_U1.VSENSE)    9.3048               (X_U1.X_U1.3)    0.0000                   

(X_U1.X_U1.4)    0.0000               (X_U1.X_U1.5)    0.0000                   

(X_U1.X_U1.6)    0.0000               (X_U1.X_U1.7)     .8338                   

(X_U1.X_U1.8)     .8338               (X_U3.VOUT_S)    3.3403                   

(X_U3.VSENSE)    5.7241               (X_U3.X_U1.3)    0.0000                   

(X_U3.X_U1.4)    0.0000               (X_U3.X_U1.5)    0.0000                   

(X_U3.X_U1.6)    0.0000               (X_U3.X_U1.7)     .8338                   

(X_U3.X_U1.8)     .8338               (X_U5.VOUT_S)   10.4110                   

(X_U5.VSENSE)   10.6690               (X_U5.X_U1.3)    0.0000                   

(X_U5.X_U1.4)    0.0000               (X_U5.X_U1.5)    0.0000                   

(X_U5.X_U1.6)    0.0000               (X_U5.X_U1.7)     .8338                   

(X_U5.X_U1.8)     .8338               (X_U1.VCC_CLP)   11.8000                  

(X_U1.VEE_CLP)     .2000              (X_U1.X_U36.3)    0.0000                  

(X_U1.X_U36.5)    0.0000              (X_U1.X_U37.3)    0.0000                  

(X_U1.X_U37.5)    0.0000              (X_U1.X_U38.1)    9.1219                  

(X_U3.VCC_CLP)   11.3010              (X_U3.VEE_CLP)     .2000                  

(X_U3.X_U36.3)    0.0000              (X_U3.X_U36.5)    0.0000                  

(X_U3.X_U37.3)    0.0000              (X_U3.X_U37.5)    0.0000                  

(X_U3.X_U38.1)    2.4000              (X_U5.VCC_CLP)   11.8000                  

(X_U5.VEE_CLP)     .2000              (X_U5.X_U36.3)    0.0000                  

(X_U5.X_U36.5)    0.0000              (X_U5.X_U37.3)    0.0000                  

(X_U5.X_U37.5)    0.0000              (X_U5.X_U38.1)   11.0000                  

(X_U1.CL_CLAMP)    9.3036             (X_U1.N5214286)    9.1219                 

(X_U1.N5220542)    5.9997             (X_U1.N5220544)    9.1219                 

(X_U1.N5220550)    9.1219             (X_U1.N5220566)    5.9997                 

(X_U1.N5220568)    5.9997             (X_U1.N5220570)    9.1219                 

(X_U1.N5220574)    9.1219             (X_U1.N5220596)    9.1219                 

(X_U1.N5220600)   12.1000             (X_U1.N5220612)    -.1000                 

(X_U1.N5220620)    9.1219             (X_U1.N5220634)    9.1219                 

(X_U1.N5220644)    5.9997             (X_U1.N5220690)    5.9997                 

(X_U1.N5220702)    5.9997             (X_U1.N5220724)    5.9997                 

(X_U1.N5220726)    5.9997             (X_U1.N5220768)   98.0000                 

(X_U1.N5220770)    5.9997             (X_U1.N5220772)    5.9997                 

(X_U1.N5220792)    5.9997             (X_U1.N5220798)    5.9997                 

(X_U1.N5220810)  -96.4000             (X_U1.N5220862)   66.0000                 

(X_U1.N5220866)    5.9997             (X_U1.N5220868)    5.9997                 

(X_U1.N5220886)    5.9997             (X_U1.N5220892)    5.9997                 

(X_U1.N5220904)  -54.0000             (X_U1.N5220930)    9.3048                 

(X_U1.N5220958)   11.8000             (X_U1.N5220962)     .2000                 

(X_U1.N5220990)     .2000             (X_U1.N5220994)   11.8000                 

(X_U1.N5221054)    5.9997             (X_U1.N5221060)    5.9997                 

(X_U1.N5221066)    5.9997             (X_U1.N5221108)    5.9997                 

(X_U1.N5221120)    9.1219             (X_U1.N5221190)    9.1219                 

(X_U1.N5221222)    6.8036             (X_U1.N5221242)   11.4040                 

(X_U1.N5221250)    6.8036             (X_U1.N5221254)    6.8036                 

(X_U1.N5221278)   11.4040             (X_U1.N5221286)   11.4040                 

(X_U1.N5221330)    5.9997             (X_U1.N5221352)   12.0000                 

(X_U1.N5221368) 6.006E-06             (X_U1.N5221462)    9.3036                 

(X_U1.N5221526)    9.3036             (X_U1.N5221534)   40.3270                 

(X_U1.N5221538)    6.1228             (X_U1.N5221574)   40.3440                 

(X_U1.N5221656)    6.3432             (X_U1.N5221668)    9.3048                 

(X_U1.N5221670)    9.3047             (X_U1.N5221694)   40.3530                 

(X_U1.N5221696)   40.3530             (X_U1.N5221736)    3.7678                 

(X_U1.N5221778)    9.3047             (X_U1.N5221808)   40.3530                 

(X_U1.N5221816)   40.3530             (X_U1.N5221836)   40.3490                 

(X_U1.N5221878)    9.1219             (X_U1.N5231966)    6.0000                 

(X_U1.N5231976)    5.9997             (X_U1.N5231986)    6.0123                 

(X_U1.N5259537)    9.3048             (X_U1.N5263447)   10.3330                 

(X_U1.N5290336)    6.0564             (X_U1.N5290346)    5.9997                 

(X_U1.N5290356)    5.9997             (X_U3.CL_CLAMP)    5.7242                 

(X_U3.N5214286)    2.4000             (X_U3.N5220542)    5.9997                 

(X_U3.N5220544)    2.4000             (X_U3.N5220550)    2.4000                 

(X_U3.N5220566)    5.9997             (X_U3.N5220568)    5.9997                 

(X_U3.N5220570)    2.4000             (X_U3.N5220574)    2.4000                 

(X_U3.N5220596)    2.4000             (X_U3.N5220600)   12.1000                 

(X_U3.N5220612)    -.1000             (X_U3.N5220620)    2.4000                 

(X_U3.N5220634)    2.4000             (X_U3.N5220644)    5.9997                 

(X_U3.N5220690)    5.9997             (X_U3.N5220702)    5.9997                 

(X_U3.N5220724)    5.9997             (X_U3.N5220726)    5.9997                 

(X_U3.N5220768)   98.0000             (X_U3.N5220770)    5.9997                 

(X_U3.N5220772)    5.9997             (X_U3.N5220792)    5.9997                 

(X_U3.N5220798)    5.9997             (X_U3.N5220810)  -96.4000                 

(X_U3.N5220862)   66.0000             (X_U3.N5220866)    5.9997                 

(X_U3.N5220868)    5.9997             (X_U3.N5220886)    5.9997                 

(X_U3.N5220892)    5.9997             (X_U3.N5220904)  -54.0000                 

(X_U3.N5220930)    5.7241             (X_U3.N5220958)   11.3010                 

(X_U3.N5220962)     .2000             (X_U3.N5220990)     .2000                 

(X_U3.N5220994)   11.3010             (X_U3.N5221054)    5.9997                 

(X_U3.N5221060)    5.9997             (X_U3.N5221066)    5.9997                 

(X_U3.N5221108)   30.0000             (X_U3.N5221120)    3.3403                 

(X_U3.N5221190)    3.3403             (X_U3.N5221222)    3.2242                 

(X_U3.N5221242)    7.8242             (X_U3.N5221250)    3.2242                 

(X_U3.N5221254)    3.2242             (X_U3.N5221278)    7.8242                 

(X_U3.N5221286)    7.8242             (X_U3.N5221330)    5.9997                 

(X_U3.N5221352)   12.0000             (X_U3.N5221368) 6.006E-06                 

(X_U3.N5221462)    5.7242             (X_U3.N5221526)    5.7242                 

(X_U3.N5221534)  456.5000             (X_U3.N5221538)    7.6157                 

(X_U3.N5221574)  456.7500             (X_U3.N5221656)   10.5070                 

(X_U3.N5221668)    5.7241             (X_U3.N5221670)    5.7241                 

(X_U3.N5221694)  456.8600             (X_U3.N5221696)  456.8600                 

(X_U3.N5221736)    3.7678             (X_U3.N5221778)    5.7241                 

(X_U3.N5221808)  456.8600             (X_U3.N5221816)  456.8600                 

(X_U3.N5221836)  456.8200             (X_U3.N5221878)    2.4000                 

(X_U3.N5231966)    6.0000             (X_U3.N5231976)    5.9997                 

(X_U3.N5231986)    6.0123             (X_U3.N5259537)    5.7241                 

(X_U3.N5263447)    5.6384             (X_U3.N5290336)    5.9343                 

(X_U3.N5290346)    5.9997             (X_U3.N5290356)    5.9997                 

(X_U5.CL_CLAMP)   10.6670             (X_U5.N5214286)   11.0000                 

(X_U5.N5220542)    5.9997             (X_U5.N5220544)   11.0000                 

(X_U5.N5220550)   11.0000             (X_U5.N5220566)    5.9997                 

(X_U5.N5220568)    5.9997             (X_U5.N5220570)   11.0000                 

(X_U5.N5220574)   11.0000             (X_U5.N5220596)   11.0000                 

(X_U5.N5220600)   12.1000             (X_U5.N5220612)    -.1000                 

(X_U5.N5220620)   11.0000             (X_U5.N5220634)   11.0000                 

(X_U5.N5220644)    5.9997             (X_U5.N5220690)    5.9997                 

(X_U5.N5220702)    5.9997             (X_U5.N5220724)    5.9997                 

(X_U5.N5220726)    5.9997             (X_U5.N5220768)   98.0000                 

(X_U5.N5220770)    5.9997             (X_U5.N5220772)    5.9997                 

(X_U5.N5220792)    5.9997             (X_U5.N5220798)    5.9997                 

(X_U5.N5220810)  -96.4000             (X_U5.N5220862)   66.0000                 

(X_U5.N5220866)    5.9997             (X_U5.N5220868)    5.9997                 

(X_U5.N5220886)    5.9997             (X_U5.N5220892)    5.9997                 

(X_U5.N5220904)  -54.0000             (X_U5.N5220930)   10.6690                 

(X_U5.N5220958)   11.8000             (X_U5.N5220962)     .2000                 

(X_U5.N5220990)     .2000             (X_U5.N5220994)   11.8000                 

(X_U5.N5221054)    5.9997             (X_U5.N5221060)    5.9997                 

(X_U5.N5221066)    5.9997             (X_U5.N5221108)    5.9994                 

(X_U5.N5221120)   10.4110             (X_U5.N5221190)   10.4110                 

(X_U5.N5221222)    8.1672             (X_U5.N5221242)   12.7670                 

(X_U5.N5221250)    8.1672             (X_U5.N5221254)    8.1672                 

(X_U5.N5221278)   12.7670             (X_U5.N5221286)   12.7670                 

(X_U5.N5221330)    5.9997             (X_U5.N5221352)   12.0000                 

(X_U5.N5221368) 6.006E-06             (X_U5.N5221462)   10.6670                 

(X_U5.N5221526)   10.6670             (X_U5.N5221534)   54.4880                 

(X_U5.N5221538)    6.1736             (X_U5.N5221574)   54.5130                 

(X_U5.N5221656)    6.4848             (X_U5.N5221668)   10.6690                 

(X_U5.N5221670)   10.6690             (X_U5.N5221694)   54.5250                 

(X_U5.N5221696)   54.5250             (X_U5.N5221736)    3.7678                 

(X_U5.N5221778)   10.6690             (X_U5.N5221808)   54.5250                 

(X_U5.N5221816)   54.5250             (X_U5.N5221836)   54.5200                 

(X_U5.N5221878)   11.0000             (X_U5.N5231966)    6.0000                 

(X_U5.N5231976)    5.9997             (X_U5.N5231986)    6.0123                 

(X_U5.N5259537)   10.6690             (X_U5.N5263447)   12.1210                 

(X_U5.N5290336)    6.0906             (X_U5.N5290346)    5.9997                 

(X_U5.N5290356)    5.9997             (X_U1.N53210501)   40.3530                

(X_U1.N53216461)    9.3048            (X_U1.N53229461)   40.3530                

(X_U3.N53210501)  456.8600            (X_U3.N53216461)    5.7241                

(X_U3.N53229461)  456.8600            (X_U5.N53210501)   54.5250                

(X_U5.N53216461)   10.6690            (X_U5.N53229461)   54.5250                

(X_U1.CLAW_CLAMP)    9.3036           (X_U3.CLAW_CLAMP)    5.7242               

(X_U5.CLAW_CLAMP)   10.6670           (X_U1.SW_OL_OPA2156)    5.9997            

(X_U3.SW_OL_OPA2156)    5.9997        (X_U5.SW_OL_OPA2156)    5.9997        




    VOLTAGE SOURCE CURRENTS
    NAME         CURRENT

    V_V1        -3.868E-02
    V_V2        -3.896E-11
    V_V3         2.005E-11
    V_V4         4.320E-10
    V_V5         1.111E-11
    X_U1.V_VCM_MAX  -6.104E-12
    X_U1.V_VCM_MIN   6.100E-12
    X_U1.V_V_GRN   6.000E-11
    X_U1.V_V_GRP  -6.000E-11
    X_U1.V_V_ISCN   1.024E-10
    X_U1.V_V_ISCP  -9.200E-11
    X_U1.V_V_ORN   0.000E+00
    X_U1.V_V_ORP   0.000E+00
    X_U3.V_VCM_MAX  -6.100E-12
    X_U3.V_VCM_MIN   6.100E-12
    X_U3.V_V_GRN   6.000E-11
    X_U3.V_V_GRP  -6.000E-11
    X_U3.V_V_ISCN   1.024E-10
    X_U3.V_V_ISCP  -9.200E-11
    X_U3.V_V_ORN   0.000E+00
    X_U3.V_V_ORP   0.000E+00
    X_U5.V_VCM_MAX  -6.102E-12
    X_U5.V_VCM_MIN   6.100E-12
    X_U5.V_V_GRN   6.000E-11
    X_U5.V_V_GRP  -6.000E-11
    X_U5.V_V_ISCN   1.024E-10
    X_U5.V_V_ISCP  -9.200E-11
    X_U5.V_V_ORN   0.000E+00
    X_U5.V_V_ORP   0.000E+00
    X_U1.X_H1.VH_H1   3.835E-11
    X_U1.X_H2.VH_H2  -2.195E-09
    X_U1.X_H3.VH_H3   2.414E-09
    X_U3.X_H1.VH_H1   2.400E-02
    X_U3.X_H2.VH_H2  -2.109E-09
    X_U3.X_H3.VH_H3   2.502E-09
    X_U5.X_H1.VH_H1  -3.245E-07
    X_U5.X_H2.VH_H2  -2.115E-09
    X_U5.X_H3.VH_H3   2.489E-09

    TOTAL POWER DISSIPATION   4.64E-01  WATTS


ERROR(ORPSIM-15138): Convergence problem in Transient Analysis at Time =  2.501E-06.
         Time step =  375.7E-21, minimum allowable step size =  400.0E-21

  These voltages failed to converge:

    V(X_Q7.6)                 =    96.31MV  \    95.09MV
    V(X_Q7.5)                 =  -571.83KV  \   -1.797MV
    V(X_Q7.7)                 =  -674.44KV  \   -1.900MV
    V(X_Q7.4)                 =    55.62MV  \    54.40MV
    V(X_Q7.8)                 =    52.21MV  \    50.98MV
    V(N01754)                 =    21.77MV  \    21.40MV
    V(X_Q8.6)                 =    5.435MV  \    5.748MV
    V(X_Q8.5)                 =    28.70KV  \   342.14KV
    V(X_Q8.7)                 =   -4.078KV  \   309.36KV
    V(X_Q8.4)                 =    2.668MV  \    2.981MV
    V(X_Q8.8)                 =    2.267MV  \    2.580MV
    V(X_Q10.6)                =    64.21KV  \    40.53KV
    V(X_Q10.5)                =    74.02KV  \    50.33KV
    V(X_Q10.7)                =   129.24KV  \   105.55KV
    V(X_Q10.4)                =   266.35KV  \   242.67KV
    V(X_Q10.8)                =   270.93KV  \   247.24KV
    V(X_Q11.1)                =    1.559KV  \  -121.61KV
    V(X_Q11.10)               =    1.063KV  \  -121.43KV
    V(X_Q11.2)                =    1.690KV  \  -121.48KV
    V(X_Q11.20)               =    1.710KV  \  -120.78KV
    V(X_Q11.3)                =   -1.545KV  \  -124.71KV
    V(X_Q11.30)               =   -1.607KV  \  -124.10KV

  These supply currents failed to converge:

    I(X_U1.X_U1.E3)           =  -465.66nA  \    83.82nA
    I(X_U3.X_U1.E3)           =   -7.078uA  \   -2.172uA
    I(X_U5.X_U1.E3)           =    11.18nA  \    9.313nA

  These devices failed to converge:
    X_Q11.Q1  



  Last node voltages tried were:

 NODE   VOLTAGE     NODE   VOLTAGE     NODE   VOLTAGE     NODE   VOLTAGE


(  VCC)   12.0000  (N00167)    9.1371 (N00415) 3903.8000 (N00579)   18.3880     

(N01016) 2496.3000 (N01127)   94.6740 (N01750)-186.2E+03 (N01754) 21.77E+06     

(N01771)-71.54E+03 (N01815)    2.4000 (N03553) 533.3E+03 (N08043)   11.0000     

(N09487)   95.3290 (N26891)    0.0000 (N27016)    5.0000 (X_U1.MID)    5.9997   

(X_U1.V11)    5.9997                  (X_U1.V12)    5.9997                      

(X_U3.MID)    5.9997                  (X_U3.V11)   18.3900                      

(X_U3.V12)    5.9997                  (X_U5.MID)    5.9997                      

(X_U5.V11)    5.9997                  (X_U5.V12)    5.9997                      

(X_U1.ESDN)  150.5500                 (X_U1.ESDP)  198.4500                     

(X_U1.VCLP)    8.3270                 (X_U3.ESDN)-6134.6000                     

(X_U3.ESDP)-3684.9000                 (X_U3.VCLP)   20.5880                     

(X_U5.ESDN)   15.8420                 (X_U5.ESDP)   14.7320                     

(X_U5.VCLP)   10.6680                 (X_U1.CLAMP)    7.8016                    

(X_U1.VCC_B)   12.0000                (X_U1.VEE_B) 5.976E-06                    

(X_U1.VIMON)    5.7435                (X_U3.CLAMP)    5.5735                    

(X_U3.VCC_B)   12.0000                (X_U3.VEE_B) 6.000E-06                    

(X_U3.VIMON)   92.3100                (X_U5.CLAMP)   10.6660                    

(X_U5.VCC_B)   12.0000                (X_U5.VEE_B) 1.148E-06                    

(X_U5.VIMON)  -13.2850                (X_U1.VOUT_S)    8.8947                   

(X_U1.VSENSE)    7.8017               (X_U1.X_U1.3)    0.0000                   

(X_U1.X_U1.4)    0.0000               (X_U1.X_U1.5)    0.0000                   

(X_U1.X_U1.6)    0.0000               (X_U1.X_U1.7)     .8338                   

(X_U1.X_U1.8)     .8338               (X_U3.VOUT_S) -138.1100                   

(X_U3.VSENSE)    5.5734               (X_U3.X_U1.3)    0.0000                   

(X_U3.X_U1.4)    0.0000               (X_U3.X_U1.5)    0.0000                   

(X_U3.X_U1.6)    0.0000               (X_U3.X_U1.7)     .8338                   

(X_U3.X_U1.8)     .8338               (X_U5.VOUT_S)   11.4710                   

(X_U5.VSENSE)   10.6660               (X_U5.X_U1.3)    0.0000                   

(X_U5.X_U1.4)    0.0000               (X_U5.X_U1.5)    0.0000                   

(X_U5.X_U1.6)    0.0000               (X_U5.X_U1.7)     .8338                   

(X_U5.X_U1.8)     .8338               (X_U1.VCC_CLP)   11.8000                  

(X_U1.VEE_CLP)     .2015              (X_U1.X_U36.3)    0.0000                  

(X_U1.X_U36.5)    0.0000              (X_U1.X_U37.3)    0.0000                  

(X_U1.X_U37.5)    0.0000              (X_U1.X_U38.1)  198.4500                  

(X_U3.VCC_CLP)    8.4248              (X_U3.VEE_CLP)     .2000                  

(X_U3.X_U36.3)    0.0000              (X_U3.X_U36.5)    0.0000                  

(X_U3.X_U37.3)    0.0000              (X_U3.X_U37.5)    0.0000                  

(X_U3.X_U38.1)-3684.9000              (X_U5.VCC_CLP)   11.8000                  

(X_U5.VEE_CLP)     .4238              (X_U5.X_U36.3)    0.0000                  

(X_U5.X_U36.5)    0.0000              (X_U5.X_U37.3)    0.0000                  

(X_U5.X_U37.5)    0.0000              (X_U5.X_U38.1)   14.7320                  

(X_U1.CL_CLAMP)    8.0304             (X_U1.N5214286)  198.4500                 

(X_U1.N5220542)   16.8510             (X_U1.N5220544)  198.4600                 

(X_U1.N5220550)  209.3100             (X_U1.N5220566)    5.9997                 

(X_U1.N5220568)    5.9987             (X_U1.N5220570)  209.3100                 

(X_U1.N5220574)  209.3100             (X_U1.N5220596)  150.5500                 

(X_U1.N5220600)   12.1000             (X_U1.N5220612)    -.1000                 

(X_U1.N5220620)   12.1000             (X_U1.N5220634)   12.1000                 

(X_U1.N5220644)-13.84E+03             (X_U1.N5220690)    5.9997                 

(X_U1.N5220702)    5.9997             (X_U1.N5220724)    5.9997                 

(X_U1.N5220726)    5.9997             (X_U1.N5220768)   98.0000                 

(X_U1.N5220770)    5.9997             (X_U1.N5220772)    5.9997                 

(X_U1.N5220792)    5.9997             (X_U1.N5220798)    5.9997                 

(X_U1.N5220810)  -96.4000             (X_U1.N5220862)   66.0000                 

(X_U1.N5220866)    5.9997             (X_U1.N5220868)    5.9997                 

(X_U1.N5220886)    5.9997             (X_U1.N5220892)    5.9997                 

(X_U1.N5220904)  -54.0000             (X_U1.N5220930)    7.8017                 

(X_U1.N5220958)   11.8000             (X_U1.N5220962)     .2015                 

(X_U1.N5220990)     .2015             (X_U1.N5220994)   11.8000                 

(X_U1.N5221054)    5.9997             (X_U1.N5221060)    5.9997                 

(X_U1.N5221066)    5.9997             (X_U1.N5221108) -394.9100                 

(X_U1.N5221120)   18.3880             (X_U1.N5221190)   18.3880                 

(X_U1.N5221222)    5.8270             (X_U1.N5221242)   10.4270                 

(X_U1.N5221250)    5.8270             (X_U1.N5221254)    5.8270                 

(X_U1.N5221278)   10.4270             (X_U1.N5221286)   10.4270                 

(X_U1.N5221330)    5.9997             (X_U1.N5221352)   12.0000                 

(X_U1.N5221368) 5.982E-06             (X_U1.N5221462)    8.0304                 

(X_U1.N5221526)    8.0304             (X_U1.N5221534)-1898.6000                 

(X_U1.N5221538)-1932.8000             (X_U1.N5221574)-7876.0000                 

(X_U1.N5221656)  -72.8240             (X_U1.N5221668)    8.1177                 

(X_U1.N5221670)    8.1181             (X_U1.N5221694)-540.9E+03                 

(X_U1.N5221696)-5374.6000             (X_U1.N5221736)    3.7678                 

(X_U1.N5221778)    8.1210             (X_U1.N5221808)-5374.4000                 

(X_U1.N5221816)-2479.4000             (X_U1.N5221836)-2478.6000                 

(X_U1.N5221878)  198.4500             (X_U1.N5231966)    5.9990                 

(X_U1.N5231976)    5.9997             (X_U1.N5231986)    6.0123                 

(X_U1.N5259537)    7.8018             (X_U1.N5263447)    8.7807                 

(X_U1.N5290336)    7.2727             (X_U1.N5290346)    7.2239                 

(X_U1.N5290356)   16.8730             (X_U3.CL_CLAMP) 1205.6000                 

(X_U3.N5214286)-3684.9000             (X_U3.N5220542) -200.4200                 

(X_U3.N5220544)-3684.9000             (X_U3.N5220550)-3891.4000                 

(X_U3.N5220566)    5.9997             (X_U3.N5220568)    5.9987                 

(X_U3.N5220570)-3891.4000             (X_U3.N5220574)-3891.4000                 

(X_U3.N5220596)-6134.6000             (X_U3.N5220600)   12.1000                 

(X_U3.N5220612)    -.1000             (X_U3.N5220620)    -.1000                 

(X_U3.N5220634)    -.1000             (X_U3.N5220644) 500.0E+03                 

(X_U3.N5220690)    5.9997             (X_U3.N5220702)    5.9997                 

(X_U3.N5220724)  144.3100             (X_U3.N5220726)  144.3100                 

(X_U3.N5220768)   98.0000             (X_U3.N5220770)    5.9997                 

(X_U3.N5220772)    5.9997             (X_U3.N5220792)    5.9997                 

(X_U3.N5220798)    5.9997             (X_U3.N5220810)  -96.4000                 

(X_U3.N5220862)   66.0000             (X_U3.N5220866)    5.9997                 

(X_U3.N5220868)    5.9997             (X_U3.N5220886)    5.9997                 

(X_U3.N5220892)    5.9997             (X_U3.N5220904)  -54.0000                 

(X_U3.N5220930)    5.5734             (X_U3.N5220958)    8.4248                 

(X_U3.N5220962)     .2000             (X_U3.N5220990)     .2000                 

(X_U3.N5220994)    8.4248             (X_U3.N5221054)   10.7300                 

(X_U3.N5221060)    5.9997             (X_U3.N5221066)    6.9899                 

(X_U3.N5221108) 122.4E+03             (X_U3.N5221120)-186.2E+03                 

(X_U3.N5221190)-186.2E+03             (X_U3.N5221222)    5.6974                 

(X_U3.N5221242)   22.6880             (X_U3.N5221250)   18.0880                 

(X_U3.N5221254)    5.6974             (X_U3.N5221278)   22.6880                 

(X_U3.N5221286)   22.6880             (X_U3.N5221330)    5.9997                 

(X_U3.N5221352)   12.0000             (X_U3.N5221368) 6.006E-06                 

(X_U3.N5221462)    5.5685             (X_U3.N5221526) 1205.6000                 

(X_U3.N5221534) 34.49E+06             (X_U3.N5221538) 34.48E+06                 

(X_U3.N5221574) 400.0E+03             (X_U3.N5221656) 8.014E+06                 

(X_U3.N5221668)    5.5711             (X_U3.N5221670)    5.5706                 

(X_U3.N5221694) 9.621E+09             (X_U3.N5221696) 96.29E+06                 

(X_U3.N5221736)    3.7678             (X_U3.N5221778)    5.5674                 

(X_U3.N5221808) 96.29E+06             (X_U3.N5221816) 45.57E+06                 

(X_U3.N5221836) 45.49E+06             (X_U3.N5221878)-3684.9000                 

(X_U3.N5231966)    5.9990             (X_U3.N5231976)    5.9997                 

(X_U3.N5231986)    6.0123             (X_U3.N5259537)    5.5734                 

(X_U3.N5263447)    5.4330             (X_U3.N5290336)  -18.1850                 

(X_U3.N5290346)  -17.6040             (X_U3.N5290356) -203.6500                 

(X_U5.CL_CLAMP)   10.6670             (X_U5.N5214286)   14.7320                 

(X_U5.N5220542)    6.2119             (X_U5.N5220544)   14.7320                 

(X_U5.N5220550)   14.9440             (X_U5.N5220566)    5.9997                 

(X_U5.N5220568)    5.9987             (X_U5.N5220570)   14.9440                 

(X_U5.N5220574)   14.9430             (X_U5.N5220596)   15.8420                 

(X_U5.N5220600)   12.1000             (X_U5.N5220612)    -.1000                 

(X_U5.N5220620)   12.1000             (X_U5.N5220634)   12.1000                 

(X_U5.N5220644) -368.2000             (X_U5.N5220690)    5.9997                 

(X_U5.N5220702)    5.9997             (X_U5.N5220724)    5.9997                 

(X_U5.N5220726)    5.9997             (X_U5.N5220768)   98.0000                 

(X_U5.N5220770)    5.9997             (X_U5.N5220772)    5.9997                 

(X_U5.N5220792)    5.9997             (X_U5.N5220798)    5.9997                 

(X_U5.N5220810)  -96.4000             (X_U5.N5220862)   66.0000                 

(X_U5.N5220866)    5.9997             (X_U5.N5220868)    5.9997                 

(X_U5.N5220886)    5.9997             (X_U5.N5220892)    5.9997                 

(X_U5.N5220904)  -54.0000             (X_U5.N5220930)   10.6660                 

(X_U5.N5220958)   11.8000             (X_U5.N5220962)     .4238                 

(X_U5.N5220990)     .4238             (X_U5.N5220994)   11.8000                 

(X_U5.N5221054)    5.9997             (X_U5.N5221060)    5.9997                 

(X_U5.N5221066)    5.9997             (X_U5.N5221108)-21.36E+03                 

(X_U5.N5221120) 2496.3000             (X_U5.N5221190) 2496.3000                 

(X_U5.N5221222)    8.1679             (X_U5.N5221242)   12.7680                 

(X_U5.N5221250)    8.1679             (X_U5.N5221254)    8.1679                 

(X_U5.N5221278)   12.7680             (X_U5.N5221286)   12.7680                 

(X_U5.N5221330)    5.9997             (X_U5.N5221352)   12.0000                 

(X_U5.N5221368) 1.154E-06             (X_U5.N5221462)   10.6670                 

(X_U5.N5221526)   10.6670             (X_U5.N5221534)-457.3E+03                 

(X_U5.N5221538)-457.3E+03             (X_U5.N5221574)-400.0E+03                 

(X_U5.N5221656)-18.08E+03             (X_U5.N5221668)   10.6670                 

(X_U5.N5221670)   10.6670             (X_U5.N5221694)-127.6E+06                 

(X_U5.N5221696)-1.276E+06             (X_U5.N5221736)    3.7678                 

(X_U5.N5221778)   10.6690             (X_U5.N5221808)-1.276E+06                 

(X_U5.N5221816)-591.6E+03             (X_U5.N5221836)-591.4E+03                 

(X_U5.N5221878)   14.7320             (X_U5.N5231966)    5.9990                 

(X_U5.N5231976)    5.9997             (X_U5.N5231986)    6.0123                 

(X_U5.N5259537)   10.6660             (X_U5.N5263447)   12.1210                 

(X_U5.N5290336)    6.1148             (X_U5.N5290346)    6.0237                 

(X_U5.N5290356)    6.2130             (X_U1.N53210501) -106.4500                

(X_U1.N53216461)    9.0128            (X_U1.N53229461)   34.8720                

(X_U3.N53210501) 3.998E+06            (X_U3.N53216461)    5.5646                

(X_U3.N53229461) 78.31E+03            (X_U5.N53210501)-30.25E+03                

(X_U5.N53216461)   10.6690            (X_U5.N53229461) -526.6000                

(X_U1.CLAW_CLAMP)    8.0304           (X_U3.CLAW_CLAMP) 1205.6000               

(X_U5.CLAW_CLAMP)   10.6670           (X_U1.SW_OL_OPA2156)    5.9997            

(X_U3.SW_OL_OPA2156)    6.0097        (X_U5.SW_OL_OPA2156)    5.9997        


**** Interrupt ****
**** Param: RELTOL = 0.01
**** Param: ABSTOL = 1e-08
**** Param: VNTOL = 1e-06
**** Param: GMIN = 1e-12
**** Param: TSTOP = 4e-06
**** Param: TMAX = 0
**** Param: ITL1 = 150
**** Param: ITL2 = 20
**** Param: ITL4 = 100
**** Param: AutoConverge = 0
**** Param: AutoConverge.ITL1 = 1000
**** Param: AutoConverge.ITL2 = 1000
**** Param: AutoConverge.ITL4 = 1000
**** Param: AutoConverge.RELTOL = 0.05
**** Param: AutoConverge.ABSTOL = 0.001
**** Param: AutoConverge.VNTOL = 0.001
**** Param: AutoConverge.PIVTOL = 1e-10
**** Param: ADVCONV = 1
**** Param: Current_Simulation = 3
**** Param: METHOD = 0
**** Param: TRTOL = 7
**** Param: STEPGMIN = 0
**** Param: GMINSTEPS = 0
**** Param: ITL6 = 0
**** Param: NOSTEPDEP = 0
**** Param: PTRANSTEP = 0
**** Param: GMINSRC = 0
**** Param: PSEUDOTRAN = 0
**** Param: NOSTEPSRC = 0

ERROR(ORPSIM-15138): Convergence problem in Transient Analysis at Time =  2.501E-06.
         Time step =  93.91E-21, minimum allowable step size =  400.0E-21

  These voltages failed to converge:

    V(X_U3.N5221656)          =    8.091MV  \    8.009MV
    V(X_Q7.6)                 =    96.71MV  \    93.92MV
    V(X_Q7.5)                 =  -171.89KV  \   -2.962MV
    V(X_Q7.7)                 =  -274.50KV  \   -3.065MV
    V(X_Q7.4)                 =    56.02MV  \    53.23MV
    V(X_Q7.8)                 =    52.61MV  \    49.82MV
    V(N01754)                 =    21.88MV  \    20.74MV
    V(X_Q8.5)                 =   -90.23KV  \  -128.12KV
    V(X_Q8.7)                 =  -123.00KV  \  -160.90KV
    V(X_Q8.4)                 =    2.549MV  \    2.511MV
    V(X_Q8.8)                 =    2.148MV  \    2.110MV
    V(X_Q10.6)                =    55.61KV  \    26.76KV
    V(X_Q10.5)                =    65.42KV  \    36.56KV
    V(X_Q10.7)                =   120.64KV  \    91.78KV
    V(X_Q10.4)                =   257.75KV  \   228.90KV
    V(X_Q10.8)                =   262.33KV  \   233.47KV
    V(X_U5.N5221656)          =   -19.17KV  \   -18.08KV
    V(X_Q11.1)                =   -21.20KV  \   -11.14KV
    V(X_Q11.10)               =   -21.58KV  \   -11.58KV
    V(X_Q11.2)                =   -21.07KV  \   -11.01KV
    V(X_Q11.20)               =   -20.93KV  \   -10.93KV
    V(X_Q11.3)                =   -24.31KV  \   -14.25KV
    V(X_Q11.30)               =   -24.25KV  \   -14.25KV

  These supply currents failed to converge:

    I(X_U1.E_E1)              =     3.595A  \     7.308A
    I(X_U3.E_E1)              =    82.30KA  \    14.79KA
    I(X_U5.E_E1)              =   -1.072KA  \   -176.96A
    I(X_U1.X_U1.E3)           =   238.42nA  \    42.84nA
    I(X_U3.X_U1.E3)           =    4.090uA  \   -8.034uA
    I(X_U5.X_U1.E3)           =         0A  \   -14.90nA

  These devices failed to converge:
    X_Q11.Q1  



  Last node voltages tried were:

 NODE   VOLTAGE     NODE   VOLTAGE     NODE   VOLTAGE     NODE   VOLTAGE


(  VCC)   12.0000  (N00167)    9.1371 (N00415) 3903.8000 (N00579)   18.3690     

(N01016) 2496.3000 (N01127)   94.6740 (N01750)-186.2E+03 (N01754) 21.88E+06     

(N01771)-71.54E+03 (N01815)    2.4000 (N03553) 533.4E+03 (N08043)   11.0000     

(N09487)   95.3300 (N26891)    0.0000 (N27016)    5.0000 (X_U1.MID)    5.9997   

(X_U1.V11)    5.9997                  (X_U1.V12)    5.9997                      

(X_U3.MID)    5.9997                  (X_U3.V11)   18.3900                      

(X_U3.V12)    5.9997                  (X_U5.MID)    5.9997                      

(X_U5.V11)    5.9997                  (X_U5.V12)    5.9997                      

(X_U1.ESDN)  150.5500                 (X_U1.ESDP)  198.4500                     

(X_U1.VCLP)    8.3270                 (X_U3.ESDN)-6134.6000                     

(X_U3.ESDP)-3684.9000                 (X_U3.VCLP)   20.5880                     

(X_U5.ESDN)   15.8420                 (X_U5.ESDP)   14.7320                     

(X_U5.VCLP)   10.6680                 (X_U1.CLAMP)    7.8016                    

(X_U1.VCC_B)   12.0000                (X_U1.VEE_B) 5.976E-06                    

(X_U1.VIMON)    5.7435                (X_U3.CLAMP)    5.5735                    

(X_U3.VCC_B)   12.0000                (X_U3.VEE_B) 6.000E-06                    

(X_U3.VIMON)   92.3110                (X_U5.CLAMP)   10.6660                    

(X_U5.VCC_B)   12.0000                (X_U5.VEE_B) 1.148E-06                    

(X_U5.VIMON)  -13.2850                (X_U1.VOUT_S)    8.8947                   

(X_U1.VSENSE)    7.8017               (X_U1.X_U1.3)    0.0000                   

(X_U1.X_U1.4)    0.0000               (X_U1.X_U1.5)    0.0000                   

(X_U1.X_U1.6)    0.0000               (X_U1.X_U1.7)     .8338                   

(X_U1.X_U1.8)     .8338               (X_U3.VOUT_S) -138.1100                   

(X_U3.VSENSE)    5.5734               (X_U3.X_U1.3)    0.0000                   

(X_U3.X_U1.4)    0.0000               (X_U3.X_U1.5)    0.0000                   

(X_U3.X_U1.6)    0.0000               (X_U3.X_U1.7)     .8338                   

(X_U3.X_U1.8)     .8338               (X_U5.VOUT_S)   11.4710                   

(X_U5.VSENSE)   10.6660               (X_U5.X_U1.3)    0.0000                   

(X_U5.X_U1.4)    0.0000               (X_U5.X_U1.5)    0.0000                   

(X_U5.X_U1.6)    0.0000               (X_U5.X_U1.7)     .8338                   

(X_U5.X_U1.8)     .8338               (X_U1.VCC_CLP)   11.8000                  

(X_U1.VEE_CLP)     .2015              (X_U1.X_U36.3)    0.0000                  

(X_U1.X_U36.5)    0.0000              (X_U1.X_U37.3)    0.0000                  

(X_U1.X_U37.5)    0.0000              (X_U1.X_U38.1)  198.4500                  

(X_U3.VCC_CLP)    8.4248              (X_U3.VEE_CLP)     .2000                  

(X_U3.X_U36.3)    0.0000              (X_U3.X_U36.5)    0.0000                  

(X_U3.X_U37.3)    0.0000              (X_U3.X_U37.5)    0.0000                  

(X_U3.X_U38.1)-3684.9000              (X_U5.VCC_CLP)   11.8000                  

(X_U5.VEE_CLP)     .4238              (X_U5.X_U36.3)    0.0000                  

(X_U5.X_U36.5)    0.0000              (X_U5.X_U37.3)    0.0000                  

(X_U5.X_U37.5)    0.0000              (X_U5.X_U38.1)   14.7320                  

(X_U1.CL_CLAMP)    8.0304             (X_U1.N5214286)  198.4500                 

(X_U1.N5220542)   16.8510             (X_U1.N5220544)  198.4600                 

(X_U1.N5220550)  209.3100             (X_U1.N5220566)    5.9997                 

(X_U1.N5220568)    5.9964             (X_U1.N5220570)  209.3100                 

(X_U1.N5220574)  209.3000             (X_U1.N5220596)  150.5500                 

(X_U1.N5220600)   12.1000             (X_U1.N5220612)    -.1000                 

(X_U1.N5220620)   12.1000             (X_U1.N5220634)   12.1000                 

(X_U1.N5220644)-13.84E+03             (X_U1.N5220690)    5.9997                 

(X_U1.N5220702)    5.9997             (X_U1.N5220724)    5.9997                 

(X_U1.N5220726)    5.9997             (X_U1.N5220768)   98.0000                 

(X_U1.N5220770)    5.9997             (X_U1.N5220772)    5.9997                 

(X_U1.N5220792)    5.9997             (X_U1.N5220798)    5.9997                 

(X_U1.N5220810)  -96.4000             (X_U1.N5220862)   66.0000                 

(X_U1.N5220866)    5.9997             (X_U1.N5220868)    5.9997                 

(X_U1.N5220886)    5.9997             (X_U1.N5220892)    5.9997                 

(X_U1.N5220904)  -54.0000             (X_U1.N5220930)    7.8017                 

(X_U1.N5220958)   11.8000             (X_U1.N5220962)     .2015                 

(X_U1.N5220990)     .2015             (X_U1.N5220994)   11.8000                 

(X_U1.N5221054)    5.9997             (X_U1.N5221060)    5.9997                 

(X_U1.N5221066)    5.9997             (X_U1.N5221108) -395.3700                 

(X_U1.N5221120)   18.3690             (X_U1.N5221190)   18.3690                 

(X_U1.N5221222)    5.8270             (X_U1.N5221242)   10.4270                 

(X_U1.N5221250)    5.8270             (X_U1.N5221254)    5.8270                 

(X_U1.N5221278)   10.4270             (X_U1.N5221286)   10.4270                 

(X_U1.N5221330)    5.9997             (X_U1.N5221352)   12.0000                 

(X_U1.N5221368) 5.982E-06             (X_U1.N5221462)    8.0304                 

(X_U1.N5221526)    8.0304             (X_U1.N5221534)-1898.7000                 

(X_U1.N5221538)-1932.9000             (X_U1.N5221574)-7885.4000                 

(X_U1.N5221656)  -72.9180             (X_U1.N5221668)    8.1177                 

(X_U1.N5221670)    8.1181             (X_U1.N5221694)-540.9E+03                 

(X_U1.N5221696)-5374.8000             (X_U1.N5221736)    3.7678                 

(X_U1.N5221778)    8.1210             (X_U1.N5221808)-5374.6000                 

(X_U1.N5221816)-2479.5000             (X_U1.N5221836)-2478.7000                 

(X_U1.N5221878)  198.4500             (X_U1.N5231966)    5.9967                 

(X_U1.N5231976)    5.9997             (X_U1.N5231986)    6.0123                 

(X_U1.N5259537)    7.8018             (X_U1.N5263447)    8.7807                 

(X_U1.N5290336)    7.2728             (X_U1.N5290346)    7.2239                 

(X_U1.N5290356)   16.8730             (X_U3.CL_CLAMP) 1205.6000                 

(X_U3.N5214286)-3684.9000             (X_U3.N5220542) -200.4200                 

(X_U3.N5220544)-3684.9000             (X_U3.N5220550)-3891.4000                 

(X_U3.N5220566)    5.9997             (X_U3.N5220568)    5.9964                 

(X_U3.N5220570)-3891.4000             (X_U3.N5220574)-3891.4000                 

(X_U3.N5220596)-6134.6000             (X_U3.N5220600)   12.1000                 

(X_U3.N5220612)    -.1000             (X_U3.N5220620)    -.1000                 

(X_U3.N5220634)    -.1000             (X_U3.N5220644) 500.0E+03                 

(X_U3.N5220690)    5.9997             (X_U3.N5220702)    5.9997                 

(X_U3.N5220724)  144.3100             (X_U3.N5220726)  144.3100                 

(X_U3.N5220768)   98.0000             (X_U3.N5220770)    5.9997                 

(X_U3.N5220772)    5.9997             (X_U3.N5220792)    5.9997                 

(X_U3.N5220798)    5.9997             (X_U3.N5220810)  -96.4000                 

(X_U3.N5220862)   66.0000             (X_U3.N5220866)    5.9997                 

(X_U3.N5220868)    5.9997             (X_U3.N5220886)    5.9997                 

(X_U3.N5220892)    5.9997             (X_U3.N5220904)  -54.0000                 

(X_U3.N5220930)    5.5734             (X_U3.N5220958)    8.4248                 

(X_U3.N5220962)     .2000             (X_U3.N5220990)     .2000                 

(X_U3.N5220994)    8.4248             (X_U3.N5221054)   10.7300                 

(X_U3.N5221060)    5.9997             (X_U3.N5221066)    6.9899                 

(X_U3.N5221108) 122.4E+03             (X_U3.N5221120)-186.2E+03                 

(X_U3.N5221190)-186.2E+03             (X_U3.N5221222)    5.6974                 

(X_U3.N5221242)   22.6880             (X_U3.N5221250)   18.0880                 

(X_U3.N5221254)    5.6974             (X_U3.N5221278)   22.6880                 

(X_U3.N5221286)   22.6880             (X_U3.N5221330)    5.9997                 

(X_U3.N5221352)   12.0000             (X_U3.N5221368) 6.006E-06                 

(X_U3.N5221462)    5.5685             (X_U3.N5221526) 1205.6000                 

(X_U3.N5221534) 34.55E+06             (X_U3.N5221538) 34.55E+06                 

(X_U3.N5221574) 400.0E+03             (X_U3.N5221656) 8.090E+06                 

(X_U3.N5221668)    5.5711             (X_U3.N5221670)    5.5706                 

(X_U3.N5221694) 9.638E+09             (X_U3.N5221696) 96.46E+06                 

(X_U3.N5221736)    3.7678             (X_U3.N5221778)    5.5674                 

(X_U3.N5221808) 96.46E+06             (X_U3.N5221816) 45.65E+06                 

(X_U3.N5221836) 45.57E+06             (X_U3.N5221878)-3684.9000                 

(X_U3.N5231966)    5.9967             (X_U3.N5231976)    5.9997                 

(X_U3.N5231986)    6.0123             (X_U3.N5259537)    5.5734                 

(X_U3.N5263447)    5.4330             (X_U3.N5290336)  -18.1850                 

(X_U3.N5290346)  -17.6040             (X_U3.N5290356) -203.6500                 

(X_U5.CL_CLAMP)   10.6670             (X_U5.N5214286)   14.7320                 

(X_U5.N5220542)    6.2119             (X_U5.N5220544)   14.7320                 

(X_U5.N5220550)   14.9440             (X_U5.N5220566)    5.9997                 

(X_U5.N5220568)    5.9964             (X_U5.N5220570)   14.9440                 

(X_U5.N5220574)   14.9410             (X_U5.N5220596)   15.8420                 

(X_U5.N5220600)   12.1000             (X_U5.N5220612)    -.1000                 

(X_U5.N5220620)   12.1000             (X_U5.N5220634)   12.1000                 

(X_U5.N5220644) -368.2000             (X_U5.N5220690)    5.9997                 

(X_U5.N5220702)    5.9997             (X_U5.N5220724)    5.9997                 

(X_U5.N5220726)    5.9997             (X_U5.N5220768)   98.0000                 

(X_U5.N5220770)    5.9997             (X_U5.N5220772)    5.9997                 

(X_U5.N5220792)    5.9997             (X_U5.N5220798)    5.9997                 

(X_U5.N5220810)  -96.4000             (X_U5.N5220862)   66.0000                 

(X_U5.N5220866)    5.9997             (X_U5.N5220868)    5.9997                 

(X_U5.N5220886)    5.9997             (X_U5.N5220892)    5.9997                 

(X_U5.N5220904)  -54.0000             (X_U5.N5220930)   10.6660                 

(X_U5.N5220958)   11.8000             (X_U5.N5220962)     .4238                 

(X_U5.N5220990)     .4238             (X_U5.N5220994)   11.8000                 

(X_U5.N5221054)    5.9997             (X_U5.N5221060)    5.9997                 

(X_U5.N5221066)    5.9997             (X_U5.N5221108)-21.36E+03                 

(X_U5.N5221120) 2496.3000             (X_U5.N5221190) 2496.3000                 

(X_U5.N5221222)    8.1679             (X_U5.N5221242)   12.7680                 

(X_U5.N5221250)    8.1679             (X_U5.N5221254)    8.1679                 

(X_U5.N5221278)   12.7680             (X_U5.N5221286)   12.7680                 

(X_U5.N5221330)    5.9997             (X_U5.N5221352)   12.0000                 

(X_U5.N5221368) 1.154E-06             (X_U5.N5221462)   10.6670                 

(X_U5.N5221526)   10.6670             (X_U5.N5221534)-458.2E+03                 

(X_U5.N5221538)-458.2E+03             (X_U5.N5221574)-400.0E+03                 

(X_U5.N5221656)-19.17E+03             (X_U5.N5221668)   10.6670                 

(X_U5.N5221670)   10.6670             (X_U5.N5221694)-127.8E+06                 

(X_U5.N5221696)-1.279E+06             (X_U5.N5221736)    3.7678                 

(X_U5.N5221778)   10.6690             (X_U5.N5221808)-1.279E+06                 

(X_U5.N5221816)-592.7E+03             (X_U5.N5221836)-592.5E+03                 

(X_U5.N5221878)   14.7320             (X_U5.N5231966)    5.9967                 

(X_U5.N5231976)    5.9997             (X_U5.N5231986)    6.0123                 

(X_U5.N5259537)   10.6660             (X_U5.N5263447)   12.1210                 

(X_U5.N5290336)    6.1148             (X_U5.N5290346)    6.0237                 

(X_U5.N5290356)    6.2130             (X_U1.N53210501) -106.4500                

(X_U1.N53216461)    9.0128            (X_U1.N53229461)   34.8720                

(X_U3.N53210501) 3.998E+06            (X_U3.N53216461)    5.5646                

(X_U3.N53229461) 78.31E+03            (X_U5.N53210501)-30.25E+03                

(X_U5.N53216461)   10.6690            (X_U5.N53229461) -526.6000                

(X_U1.CLAW_CLAMP)    8.0304           (X_U3.CLAW_CLAMP) 1205.6000               

(X_U5.CLAW_CLAMP)   10.6670           (X_U1.SW_OL_OPA2156)    5.9997            

(X_U3.SW_OL_OPA2156)    6.0097        (X_U5.SW_OL_OPA2156)    5.9997        


**** Interrupt ****
**** Param: RELTOL = 0.01
**** Param: ABSTOL = 1e-06
**** Param: VNTOL = 1e-06
**** Param: GMIN = 1e-12
**** Param: TSTOP = 4e-06
**** Param: TMAX = 0
**** Param: ITL1 = 150
**** Param: ITL2 = 20
**** Param: ITL4 = 100
**** Param: AutoConverge = 0
**** Param: AutoConverge.ITL1 = 1000
**** Param: AutoConverge.ITL2 = 1000
**** Param: AutoConverge.ITL4 = 1000
**** Param: AutoConverge.RELTOL = 0.05
**** Param: AutoConverge.ABSTOL = 0.001
**** Param: AutoConverge.VNTOL = 0.001
**** Param: AutoConverge.PIVTOL = 1e-10
**** Param: ADVCONV = 1
**** Param: Current_Simulation = 3
**** Param: METHOD = 0
**** Param: TRTOL = 7
**** Param: STEPGMIN = 0
**** Param: GMINSTEPS = 0
**** Param: ITL6 = 0
**** Param: NOSTEPDEP = 0
**** Param: PTRANSTEP = 0
**** Param: GMINSRC = 0
**** Param: PSEUDOTRAN = 0
**** Param: NOSTEPSRC = 0

ERROR(ORPSIM-15138): Convergence problem in Transient Analysis at Time =  2.501E-06.
         Time step =  375.7E-21, minimum allowable step size =  400.0E-21

  These voltages failed to converge:

    V(X_Q7.6)                 =    97.85MV  \    96.63MV
    V(X_Q7.5)                 =   969.27KV  \  -250.97KV
    V(X_Q7.7)                 =   866.67KV  \  -353.58KV
    V(X_Q7.4)                 =    57.16MV  \    55.94MV
    V(X_Q7.8)                 =    53.75MV  \    52.53MV
    V(N01754)                 =    22.46MV  \    21.86MV
    V(X_Q8.6)                 =    5.627MV  \    5.363MV
    V(X_Q8.5)                 =   222.28KV  \   -42.29KV
    V(X_Q8.7)                 =   189.50KV  \   -75.07KV
    V(X_Q8.4)                 =    2.861MV  \    2.597MV
    V(X_Q8.8)                 =    2.460MV  \    2.196MV
    V(X_Q10.6)                =    62.55KV  \    56.31KV
    V(X_Q10.5)                =    72.36KV  \    66.12KV
    V(X_Q10.7)                =   127.58KV  \   121.34KV
    V(X_Q10.4)                =   264.69KV  \   258.45KV
    V(X_Q10.8)                =   269.27KV  \   263.03KV
    V(X_Q11.1)                =    8.007KV  \   -10.80KV
    V(X_Q11.10)               =    7.463KV  \   -11.23KV
    V(X_Q11.2)                =    8.138KV  \   -10.66KV
    V(X_Q11.20)               =    8.109KV  \   -10.58KV
    V(X_Q11.3)                =    4.903KV  \   -13.90KV
    V(X_Q11.30)               =    4.793KV  \   -13.90KV

  These supply currents failed to converge:

    I(X_U3.X_U1.E3)           =   -22.34uA  \    5.860uA

  These devices failed to converge:
    X_Q11.Q1  



  Last node voltages tried were:

 NODE   VOLTAGE     NODE   VOLTAGE     NODE   VOLTAGE     NODE   VOLTAGE


(  VCC)   12.0000  (N00167)    9.1371 (N00415) 3903.8000 (N00579)   18.3880     

(N01016) 2496.3000 (N01127)   94.6740 (N01750)-186.2E+03 (N01754) 22.46E+06     

(N01771)-71.54E+03 (N01815)    2.4000 (N03553) 533.4E+03 (N08043)   11.0000     

(N09487)   95.3290 (N26891)    0.0000 (N27016)    5.0000 (X_U1.MID)    5.9997   

(X_U1.V11)    5.9997                  (X_U1.V12)    5.9997                      

(X_U3.MID)    5.9997                  (X_U3.V11)   18.3900                      

(X_U3.V12)    5.9997                  (X_U5.MID)    5.9997                      

(X_U5.V11)    5.9997                  (X_U5.V12)    5.9997                      

(X_U1.ESDN)  150.5500                 (X_U1.ESDP)  198.4500                     

(X_U1.VCLP)    8.3270                 (X_U3.ESDN)-6134.6000                     

(X_U3.ESDP)-3684.9000                 (X_U3.VCLP)   20.5880                     

(X_U5.ESDN)   15.8420                 (X_U5.ESDP)   14.7320                     

(X_U5.VCLP)   10.6680                 (X_U1.CLAMP)    7.8016                    

(X_U1.VCC_B)   12.0000                (X_U1.VEE_B) 5.976E-06                    

(X_U1.VIMON)    5.7435                (X_U3.CLAMP)    5.5735                    

(X_U3.VCC_B)   12.0000                (X_U3.VEE_B) 6.000E-06                    

(X_U3.VIMON)   92.3110                (X_U5.CLAMP)   10.6660                    

(X_U5.VCC_B)   12.0000                (X_U5.VEE_B) 1.148E-06                    

(X_U5.VIMON)  -13.2850                (X_U1.VOUT_S)    8.8947                   

(X_U1.VSENSE)    7.8017               (X_U1.X_U1.3)    0.0000                   

(X_U1.X_U1.4)    0.0000               (X_U1.X_U1.5)    0.0000                   

(X_U1.X_U1.6)    0.0000               (X_U1.X_U1.7)     .8338                   

(X_U1.X_U1.8)     .8338               (X_U3.VOUT_S) -138.1100                   

(X_U3.VSENSE)    5.5734               (X_U3.X_U1.3)    0.0000                   

(X_U3.X_U1.4)    0.0000               (X_U3.X_U1.5)    0.0000                   

(X_U3.X_U1.6)    0.0000               (X_U3.X_U1.7)     .8338                   

(X_U3.X_U1.8)     .8338               (X_U5.VOUT_S)   11.4710                   

(X_U5.VSENSE)   10.6660               (X_U5.X_U1.3)    0.0000                   

(X_U5.X_U1.4)    0.0000               (X_U5.X_U1.5)    0.0000                   

(X_U5.X_U1.6)    0.0000               (X_U5.X_U1.7)     .8338                   

(X_U5.X_U1.8)     .8338               (X_U1.VCC_CLP)   11.8000                  

(X_U1.VEE_CLP)     .2015              (X_U1.X_U36.3)    0.0000                  

(X_U1.X_U36.5)    0.0000              (X_U1.X_U37.3)    0.0000                  

(X_U1.X_U37.5)    0.0000              (X_U1.X_U38.1)  198.4500                  

(X_U3.VCC_CLP)    8.4248              (X_U3.VEE_CLP)     .2000                  

(X_U3.X_U36.3)    0.0000              (X_U3.X_U36.5)    0.0000                  

(X_U3.X_U37.3)    0.0000              (X_U3.X_U37.5)    0.0000                  

(X_U3.X_U38.1)-3684.9000              (X_U5.VCC_CLP)   11.8000                  

(X_U5.VEE_CLP)     .4238              (X_U5.X_U36.3)    0.0000                  

(X_U5.X_U36.5)    0.0000              (X_U5.X_U37.3)    0.0000                  

(X_U5.X_U37.5)    0.0000              (X_U5.X_U38.1)   14.7320                  

(X_U1.CL_CLAMP)    8.0304             (X_U1.N5214286)  198.4500                 

(X_U1.N5220542)   16.8510             (X_U1.N5220544)  198.4600                 

(X_U1.N5220550)  209.3100             (X_U1.N5220566)    5.9997                 

(X_U1.N5220568)    5.9987             (X_U1.N5220570)  209.3100                 

(X_U1.N5220574)  209.3100             (X_U1.N5220596)  150.5500                 

(X_U1.N5220600)   12.1000             (X_U1.N5220612)    -.1000                 

(X_U1.N5220620)   12.1000             (X_U1.N5220634)   12.1000                 

(X_U1.N5220644)-13.84E+03             (X_U1.N5220690)    5.9997                 

(X_U1.N5220702)    5.9997             (X_U1.N5220724)    5.9997                 

(X_U1.N5220726)    5.9997             (X_U1.N5220768)   98.0000                 

(X_U1.N5220770)    5.9997             (X_U1.N5220772)    5.9997                 

(X_U1.N5220792)    5.9997             (X_U1.N5220798)    5.9997                 

(X_U1.N5220810)  -96.4000             (X_U1.N5220862)   66.0000                 

(X_U1.N5220866)    5.9997             (X_U1.N5220868)    5.9997                 

(X_U1.N5220886)    5.9997             (X_U1.N5220892)    5.9997                 

(X_U1.N5220904)  -54.0000             (X_U1.N5220930)    7.8017                 

(X_U1.N5220958)   11.8000             (X_U1.N5220962)     .2015                 

(X_U1.N5220990)     .2015             (X_U1.N5220994)   11.8000                 

(X_U1.N5221054)    5.9997             (X_U1.N5221060)    5.9997                 

(X_U1.N5221066)    5.9997             (X_U1.N5221108) -394.9100                 

(X_U1.N5221120)   18.3880             (X_U1.N5221190)   18.3880                 

(X_U1.N5221222)    5.8270             (X_U1.N5221242)   10.4270                 

(X_U1.N5221250)    5.8270             (X_U1.N5221254)    5.8270                 

(X_U1.N5221278)   10.4270             (X_U1.N5221286)   10.4270                 

(X_U1.N5221330)    5.9997             (X_U1.N5221352)   12.0000                 

(X_U1.N5221368) 5.982E-06             (X_U1.N5221462)    8.0304                 

(X_U1.N5221526)    8.0304             (X_U1.N5221534)-1898.6000                 

(X_U1.N5221538)-1932.8000             (X_U1.N5221574)-7876.0000                 

(X_U1.N5221656)  -72.8240             (X_U1.N5221668)    8.1177                 

(X_U1.N5221670)    8.1181             (X_U1.N5221694)-540.9E+03                 

(X_U1.N5221696)-5374.6000             (X_U1.N5221736)    3.7678                 

(X_U1.N5221778)    8.1210             (X_U1.N5221808)-5374.4000                 

(X_U1.N5221816)-2479.4000             (X_U1.N5221836)-2478.6000                 

(X_U1.N5221878)  198.4500             (X_U1.N5231966)    5.9990                 

(X_U1.N5231976)    5.9997             (X_U1.N5231986)    6.0123                 

(X_U1.N5259537)    7.8018             (X_U1.N5263447)    8.7807                 

(X_U1.N5290336)    7.2727             (X_U1.N5290346)    7.2239                 

(X_U1.N5290356)   16.8730             (X_U3.CL_CLAMP) 1205.6000                 

(X_U3.N5214286)-3684.9000             (X_U3.N5220542) -200.4200                 

(X_U3.N5220544)-3684.9000             (X_U3.N5220550)-3891.4000                 

(X_U3.N5220566)    5.9997             (X_U3.N5220568)    5.9987                 

(X_U3.N5220570)-3891.4000             (X_U3.N5220574)-3891.4000                 

(X_U3.N5220596)-6134.6000             (X_U3.N5220600)   12.1000                 

(X_U3.N5220612)    -.1000             (X_U3.N5220620)    -.1000                 

(X_U3.N5220634)    -.1000             (X_U3.N5220644) 500.0E+03                 

(X_U3.N5220690)    5.9997             (X_U3.N5220702)    5.9997                 

(X_U3.N5220724)  144.3100             (X_U3.N5220726)  144.3100                 

(X_U3.N5220768)   98.0000             (X_U3.N5220770)    5.9997                 

(X_U3.N5220772)    5.9997             (X_U3.N5220792)    5.9997                 

(X_U3.N5220798)    5.9997             (X_U3.N5220810)  -96.4000                 

(X_U3.N5220862)   66.0000             (X_U3.N5220866)    5.9997                 

(X_U3.N5220868)    5.9997             (X_U3.N5220886)    5.9997                 

(X_U3.N5220892)    5.9997             (X_U3.N5220904)  -54.0000                 

(X_U3.N5220930)    5.5734             (X_U3.N5220958)    8.4248                 

(X_U3.N5220962)     .2000             (X_U3.N5220990)     .2000                 

(X_U3.N5220994)    8.4248             (X_U3.N5221054)   10.7300                 

(X_U3.N5221060)    5.9997             (X_U3.N5221066)    6.9899                 

(X_U3.N5221108) 122.4E+03             (X_U3.N5221120)-186.2E+03                 

(X_U3.N5221190)-186.2E+03             (X_U3.N5221222)    5.6974                 

(X_U3.N5221242)   22.6880             (X_U3.N5221250)   18.0880                 

(X_U3.N5221254)    5.6974             (X_U3.N5221278)   22.6880                 

(X_U3.N5221286)   22.6880             (X_U3.N5221330)    5.9997                 

(X_U3.N5221352)   12.0000             (X_U3.N5221368) 6.006E-06                 

(X_U3.N5221462)    5.5685             (X_U3.N5221526) 1205.6000                 

(X_U3.N5221534) 34.48E+06             (X_U3.N5221538) 34.48E+06                 

(X_U3.N5221574) 400.0E+03             (X_U3.N5221656) 8.009E+06                 

(X_U3.N5221668)    5.5711             (X_U3.N5221670)    5.5706                 

(X_U3.N5221694) 9.620E+09             (X_U3.N5221696) 96.28E+06                 

(X_U3.N5221736)    3.7678             (X_U3.N5221778)    5.5674                 

(X_U3.N5221808) 96.27E+06             (X_U3.N5221816) 45.56E+06                 

(X_U3.N5221836) 45.48E+06             (X_U3.N5221878)-3684.9000                 

(X_U3.N5231966)    5.9990             (X_U3.N5231976)    5.9997                 

(X_U3.N5231986)    6.0123             (X_U3.N5259537)    5.5734                 

(X_U3.N5263447)    5.4330             (X_U3.N5290336)  -18.1850                 

(X_U3.N5290346)  -17.6040             (X_U3.N5290356) -203.6500                 

(X_U5.CL_CLAMP)   10.6670             (X_U5.N5214286)   14.7320                 

(X_U5.N5220542)    6.2119             (X_U5.N5220544)   14.7320                 

(X_U5.N5220550)   14.9440             (X_U5.N5220566)    5.9997                 

(X_U5.N5220568)    5.9987             (X_U5.N5220570)   14.9440                 

(X_U5.N5220574)   14.9430             (X_U5.N5220596)   15.8420                 

(X_U5.N5220600)   12.1000             (X_U5.N5220612)    -.1000                 

(X_U5.N5220620)   12.1000             (X_U5.N5220634)   12.1000                 

(X_U5.N5220644) -368.2000             (X_U5.N5220690)    5.9997                 

(X_U5.N5220702)    5.9997             (X_U5.N5220724)    5.9997                 

(X_U5.N5220726)    5.9997             (X_U5.N5220768)   98.0000                 

(X_U5.N5220770)    5.9997             (X_U5.N5220772)    5.9997                 

(X_U5.N5220792)    5.9997             (X_U5.N5220798)    5.9997                 

(X_U5.N5220810)  -96.4000             (X_U5.N5220862)   66.0000                 

(X_U5.N5220866)    5.9997             (X_U5.N5220868)    5.9997                 

(X_U5.N5220886)    5.9997             (X_U5.N5220892)    5.9997                 

(X_U5.N5220904)  -54.0000             (X_U5.N5220930)   10.6660                 

(X_U5.N5220958)   11.8000             (X_U5.N5220962)     .4238                 

(X_U5.N5220990)     .4238             (X_U5.N5220994)   11.8000                 

(X_U5.N5221054)    5.9997             (X_U5.N5221060)    5.9997                 

(X_U5.N5221066)    5.9997             (X_U5.N5221108)-21.36E+03                 

(X_U5.N5221120) 2496.3000             (X_U5.N5221190) 2496.3000                 

(X_U5.N5221222)    8.1679             (X_U5.N5221242)   12.7680                 

(X_U5.N5221250)    8.1679             (X_U5.N5221254)    8.1679                 

(X_U5.N5221278)   12.7680             (X_U5.N5221286)   12.7680                 

(X_U5.N5221330)    5.9997             (X_U5.N5221352)   12.0000                 

(X_U5.N5221368) 1.154E-06             (X_U5.N5221462)   10.6670                 

(X_U5.N5221526)   10.6670             (X_U5.N5221534)-457.3E+03                 

(X_U5.N5221538)-457.3E+03             (X_U5.N5221574)-400.0E+03                 

(X_U5.N5221656)-18.08E+03             (X_U5.N5221668)   10.6670                 

(X_U5.N5221670)   10.6670             (X_U5.N5221694)-127.6E+06                 

(X_U5.N5221696)-1.276E+06             (X_U5.N5221736)    3.7678                 

(X_U5.N5221778)   10.6690             (X_U5.N5221808)-1.276E+06                 

(X_U5.N5221816)-591.6E+03             (X_U5.N5221836)-591.4E+03                 

(X_U5.N5221878)   14.7320             (X_U5.N5231966)    5.9990                 

(X_U5.N5231976)    5.9997             (X_U5.N5231986)    6.0123                 

(X_U5.N5259537)   10.6660             (X_U5.N5263447)   12.1210                 

(X_U5.N5290336)    6.1148             (X_U5.N5290346)    6.0237                 

(X_U5.N5290356)    6.2130             (X_U1.N53210501) -106.4500                

(X_U1.N53216461)    9.0128            (X_U1.N53229461)   34.8720                

(X_U3.N53210501) 3.998E+06            (X_U3.N53216461)    5.5646                

(X_U3.N53229461) 78.31E+03            (X_U5.N53210501)-30.25E+03                

(X_U5.N53216461)   10.6690            (X_U5.N53229461) -526.6000                

(X_U1.CLAW_CLAMP)    8.0304           (X_U3.CLAW_CLAMP) 1205.6000               

(X_U5.CLAW_CLAMP)   10.6670           (X_U1.SW_OL_OPA2156)    5.9997            

(X_U3.SW_OL_OPA2156)    6.0097        (X_U5.SW_OL_OPA2156)    5.9997        


**** Interrupt ****
