
**** 11/08/24 18:21:39 **** PSpice 23.1.0 (30 January 2024) *** ID# 0 ********

 ** Profile: "SCHEMATIC1-sim"  [ C:\cds_spb_home\cdssetup\Project4\project4-pspicefiles\schematic1\sim.sim ] 


 ****     CIRCUIT DESCRIPTION


******************************************************************************




** Creating circuit file "sim.cir" 
** WARNING: THIS AUTOMATICALLY GENERATED FILE MAY BE OVERWRITTEN BY SUBSEQUENT SIMULATIONS

*Libraries: 
* Profile Libraries :
* Local Libraries :
* From [PSPICE NETLIST] section of C:\cds_spb_home\cdssetup\OrCAD_PSpiceTIPSpice_Install\23.1.0\PSpice.ini file:
.lib "nom_pspti.lib" 
.lib "nom.lib" 

*Analysis directives: 
.TRAN  0 2.52u 2.45u 
.OPTIONS ADVCONV
.OPTIONS FILEMODELSEARCH
.OPTIONS ABSTOL= 1.0n
.OPTIONS ITL2= 200
.OPTIONS ITL4= 1000
.OPTIONS RELTOL= 0.01
.PROBE64 V(alias(*)) I(alias(*)) W(alias(*)) D(alias(*)) NOISE(alias(*)) 
.INC "..\SCHEMATIC1.net" 



**** INCLUDING SCHEMATIC1.net ****
* source PROJECT4
V_V1         VCC 0 12Vdc
R_R1         N00167 VCC  2k TC=0,0 
R_R2         0 N00167  10k TC=0,0 
C_C1         0 N00167  1u  TC=0,0 
C_C2         0 N00415  1n  TC=0,0 
V_V2         N08043 0 11Vdc
R_R3         N01127 VCC  1500k TC=0,0 
R_R4         N09487 VCC  1k TC=0,0 
M_M1         N09487 0 N01127 N01127 IRF123
X_U3         N01815 N01771 VCC 0 N01750 OPA2156
V_V3         N01815 0 3.5Vdc
X_Q7         N00415 N26891 N01754 BFG135/PLP 
X_Q8         N03553 N27016 N01754 BFG135/PLP 
X_Q10         N01754 N01750 N01771 BFG135/PLP 
R_R6         N03553 VCC  150 TC=0,0 
X_U5         N08043 N01127 VCC 0 N01016 OPA2156
X_Q11         N00415 N01016 N01127 BFT93/INF
X_D4         N00415 N00167 BAT54/PLP
D_D6         0 N00167 BZX84C9V1/PLP 
V_V4         N26891 0  
+PULSE 0V 5V 2.490u 300p 300p 0.01u 4u
V_V5         N27016 0  
+PULSE 0V 5V 0 400p 400p 2.490u 2.5u
R_R7         0 N01771  100 TC=0,0 
X_U6         N00415 N32736 VCC 0 N32736 OPA659

**** RESUMING sim.cir ****
.END

**** 11/08/24 18:21:39 **** PSpice 23.1.0 (30 January 2024) *** ID# 0 ********

 ** Profile: "SCHEMATIC1-sim"  [ C:\cds_spb_home\cdssetup\Project4\project4-pspicefiles\schematic1\sim.sim ] 


 ****     Diode MODEL PARAMETERS


******************************************************************************




               X_U3.X_U1.DVN   X_U5.X_U1.DVN   
          IS  100.000000E-18  100.000000E-18 
          KF    1.000000E-12    1.000000E-12 


**** 11/08/24 18:21:39 **** PSpice 23.1.0 (30 January 2024) *** ID# 0 ********

 ** Profile: "SCHEMATIC1-sim"  [ C:\cds_spb_home\cdssetup\Project4\project4-pspicefiles\schematic1\sim.sim ] 


 ****     BJT MODEL PARAMETERS


******************************************************************************




               X_U6.NPN        X_U6.PNP        
               NPN             PNP             
       LEVEL    1               1            
          IS  100.000000E-18  100.000000E-18 
          BF  100             100            
          NF    1               1            
         VAF    1.000000E+09    1.000000E+09 
         IKF    1.000000E+09    1.000000E+09 
          BR    1               1            
          NR    1               1            
         VAR    1.000000E+09    1.000000E+09 
         IKR    1.000000E+09    1.000000E+09 
         ISS    0               0            
          RB  240             240            
         RBM  190             190            
         IRB    1.000000E+09    1.000000E+09 
          RE    0               0            
          RC  200             200            
         CJE    0               0            
         VJE     .75             .75         
         CJC    0               0            
         VJC     .75             .75         
         MJC     .33             .33         
        XCJC    1               1            
         CJS    0               0            
         VJS     .75             .75         
         VTF    1.000000E+09    1.000000E+09 
          KF    5.000000E-15    5.000000E-15 
          AF    1               1            
          CN    2.42            2.2          
           D     .87             .52         


**** 11/08/24 18:21:39 **** PSpice 23.1.0 (30 January 2024) *** ID# 0 ********

 ** Profile: "SCHEMATIC1-sim"  [ C:\cds_spb_home\cdssetup\Project4\project4-pspicefiles\schematic1\sim.sim ] 


 ****     Junction FET MODEL PARAMETERS


******************************************************************************




               X_U6.NFET       
               NJF             
         VTO   -2            
        BETA  100.000000E-06 
          RD   25            
          RS   25            
          KF   40.000000E-18 


**** 11/08/24 18:21:39 **** PSpice 23.1.0 (30 January 2024) *** ID# 0 ********

 ** Profile: "SCHEMATIC1-sim"  [ C:\cds_spb_home\cdssetup\Project4\project4-pspicefiles\schematic1\sim.sim ] 


 ****     Resistor MODEL PARAMETERS


******************************************************************************




               X_U3.R_NOISELESS 
  T_Measured   27            
   T_Current -273.15         
           R    1            


               X_U5.R_NOISELESS 
  T_Measured   27            
   T_Current -273.15         
           R    1            


**** 11/08/24 18:21:39 **** PSpice 23.1.0 (30 January 2024) *** ID# 0 ********

 ** Profile: "SCHEMATIC1-sim"  [ C:\cds_spb_home\cdssetup\Project4\project4-pspicefiles\schematic1\sim.sim ] 


 ****     Voltage Controlled Switch MODEL PARAMETERS


******************************************************************************




               X_U3.X_S1._S1   X_U3.X_S2._S2   
         RON     .01             .01         
        ROFF    1.000000E+12    1.000000E+12 
         VON     .01             .01         
        VOFF    0               0            


               X_U3.X_U21.ESD_SW 
         RON   50            
        ROFF    1.000000E+12 
         VON     .5          
        VOFF     .45         


               X_U3.X_U25.OL_SW 
         RON    1.000000E-03 
        ROFF    1.000000E+12 
         VON     .9          
        VOFF     .8          


               X_U3.X_U5.ESD_SW                X_U5.X_S1._S1   X_U5.X_S2._S2   
         RON   50                                .01             .01         
        ROFF    1.000000E+12                    1.000000E+12    1.000000E+12 
         VON     .5                              .01             .01         
        VOFF     .45                            0               0            


               X_U5.X_U21.ESD_SW 
         RON   50            
        ROFF    1.000000E+12 
         VON     .5          
        VOFF     .45         


               X_U5.X_U25.OL_SW 
         RON    1.000000E-03 
        ROFF    1.000000E+12 
         VON     .9          
        VOFF     .8          


               X_U5.X_U5.ESD_SW 
         RON   50            
        ROFF    1.000000E+12 
         VON     .5          
        VOFF     .45         


WARNING(ORPSIM-16534): Using high values of ITL4 for Speed Level > 0 may increase total simulation job time.

Starting pseudo-transient algorithm.

INFO(ORPSIM-16594): To improve Pseudotransient Convergence and Performance, set following options to relax stabilization criteria for capacitor currents and inductor voltages: PTRANABSTOL=1e-5, PTRANVNTOL=1e-4

**** 11/08/24 18:21:39 **** PSpice 23.1.0 (30 January 2024) *** ID# 0 ********

 ** Profile: "SCHEMATIC1-sim"  [ C:\cds_spb_home\cdssetup\Project4\project4-pspicefiles\schematic1\sim.sim ] 


 ****     INITIAL TRANSIENT SOLUTION       TEMPERATURE =   27.000 DEG C


******************************************************************************



 NODE   VOLTAGE     NODE   VOLTAGE     NODE   VOLTAGE     NODE   VOLTAGE


(  VCC)   12.0000  (N00167)    9.0404 (N00415)    9.1137 (N01016)   10.4190     

(N01127)   11.0000 (N01750)    4.5086 (N01754)    3.5142 (N01771)    3.5000     

(N01815)    3.5000 (N03553)   12.0000 (N08043)   11.0000 (N09487)   11.9970     

(N26891)    0.0000 (N27016)    0.0000 (N32736)    9.1140 (X_U6.8)    9.1140     

(X_U6.15)    9.1234                   (X_U6.18)    8.3354                       

(X_U6.20)    1.7934                   (X_U6.22)     .9741                       

(X_U6.43)    9.1047                   (X_U6.46)    9.8927                       

(X_U6.69)    9.1140                   (X_U6.71)    9.1140                       

(X_U6.74)     .1980                   (X_U6.76)     .1980                       

(X_U6.79)    9.4937                   (X_U6.82)    9.1138                       

(X_U6.83)   10.7970                   (X_U6.86)   10.7970                       

(X_U6.N1)    0.0000                   (X_U6.N4)    9.1137                       

(X_U3.MID)    5.9997                  (X_U3.V11)    5.9997                      

(X_U3.V12)    5.9997                  (X_U5.MID)    5.9997                      

(X_U5.V11)    5.9997                  (X_U5.V12)    5.9997                      

(X_U6.058)    -.0012                  (X_U6.065)-1.918E-09                      

(X_U6.070)-191.8E-06                  (X_U6.077)    9.1140                      

(X_U6.090)   10.8000                  (X_U6.092)   10.8000                      

(X_U6.HIZ)    9.1140                  (X_U3.ESDN)    3.5000                     

(X_U3.ESDP)    3.5000                 (X_U3.VCLP)    8.1239                     

(X_U5.ESDN)   11.0000                 (X_U5.ESDP)   11.0000                     

(X_U5.VCLP)   10.6770                 (X_U6.0121)    0.0000                     

(X_U6.0125)-1.918E-09                 (X_U6.0129)    9.4936                     

(X_U6.0139)    9.1140                 (X_U6.0141)    -.0012                     

(X_U6.0143)    9.1140                 (X_U6.0173)    2.4960                     

(X_U6.0180)    -.0012                 (X_U6.0187)    9.4536                     

(X_U6.VREF)   10.0000                 (X_U3.CLAMP)    8.1247                    

(X_U3.VCC_B)   12.0000                (X_U3.VEE_B) 6.000E-06                    

(X_U3.VIMON)   41.0000                (X_U5.CLAMP)   10.6780                    

(X_U5.VCC_B)   12.0000                (X_U5.VEE_B) 6.000E-06                    

(X_U5.VIMON)    5.9994                (X_U3.VOUT_S)    4.5086                   

(X_U3.VSENSE)    8.1247               (X_U3.X_U1.3)    0.0000                   

(X_U3.X_U1.4)    0.0000               (X_U3.X_U1.5)    0.0000                   

(X_U3.X_U1.6)    0.0000               (X_U3.X_U1.7)     .8338                   

(X_U3.X_U1.8)     .8338               (X_U5.VOUT_S)   10.4190                   

(X_U5.VSENSE)   10.6780               (X_U5.X_U1.3)    0.0000                   

(X_U5.X_U1.4)    0.0000               (X_U5.X_U1.5)    0.0000                   

(X_U5.X_U1.6)    0.0000               (X_U5.X_U1.7)     .8338                   

(X_U5.X_U1.8)     .8338               (X_U3.VCC_CLP)   10.9880                  

(X_U3.VEE_CLP)     .2000              (X_U3.X_U36.3)    0.0000                  

(X_U3.X_U36.5)    0.0000              (X_U3.X_U37.3)    0.0000                  

(X_U3.X_U37.5)    0.0000              (X_U3.X_U38.1)    3.5000                  

(X_U5.VCC_CLP)   11.8000              (X_U5.VEE_CLP)     .2000                  

(X_U5.X_U36.3)    0.0000              (X_U5.X_U36.5)    0.0000                  

(X_U5.X_U37.3)    0.0000              (X_U5.X_U37.5)    0.0000                  

(X_U5.X_U38.1)   11.0000              (X_U3.CL_CLAMP)    8.1239                 

(X_U3.N5214286)    3.5000             (X_U3.N5220542)    5.9997                 

(X_U3.N5220544)    3.5000             (X_U3.N5220550)    3.5000                 

(X_U3.N5220566)    5.9997             (X_U3.N5220568)    5.9997                 

(X_U3.N5220570)    3.5000             (X_U3.N5220574)    3.5000                 

(X_U3.N5220596)    3.5000             (X_U3.N5220600)   12.1000                 

(X_U3.N5220612)    -.1000             (X_U3.N5220620)    3.5000                 

(X_U3.N5220634)    3.5000             (X_U3.N5220644)    5.9997                 

(X_U3.N5220690)    5.9997             (X_U3.N5220702)    5.9997                 

(X_U3.N5220724)    5.9997             (X_U3.N5220726)    5.9997                 

(X_U3.N5220768)   98.0000             (X_U3.N5220770)    5.9997                 

(X_U3.N5220772)    5.9997             (X_U3.N5220792)    5.9997                 

(X_U3.N5220798)    5.9997             (X_U3.N5220810)  -96.4000                 

(X_U3.N5220862)   66.0000             (X_U3.N5220866)    5.9997                 

(X_U3.N5220868)    5.9997             (X_U3.N5220886)    5.9997                 

(X_U3.N5220892)    5.9997             (X_U3.N5220904)  -54.0000                 

(X_U3.N5220930)    8.1247             (X_U3.N5220958)   10.9880                 

(X_U3.N5220962)     .2000             (X_U3.N5220990)     .2000                 

(X_U3.N5220994)   10.9880             (X_U3.N5221054)    5.9997                 

(X_U3.N5221060)    5.9997             (X_U3.N5221066)    5.9997                 

(X_U3.N5221108)   41.0000             (X_U3.N5221120)    4.5086                 

(X_U3.N5221190)    4.5086             (X_U3.N5221222)    5.6239                 

(X_U3.N5221242)   10.2240             (X_U3.N5221250)    5.6239                 

(X_U3.N5221254)    5.6239             (X_U3.N5221278)   10.2240                 

(X_U3.N5221286)   10.2240             (X_U3.N5221330)    5.9997                 

(X_U3.N5221352)   12.0000             (X_U3.N5221368) 6.006E-06                 

(X_U3.N5221462)    8.1239             (X_U3.N5221526)    8.1239                 

(X_U3.N5221534)  689.2300             (X_U3.N5221538)    8.4505                 

(X_U3.N5221574)  689.6000             (X_U3.N5221656)   12.8360                 

(X_U3.N5221668)    8.1247             (X_U3.N5221670)    8.1247                 

(X_U3.N5221694)  689.7700             (X_U3.N5221696)  689.7700                 

(X_U3.N5221736)    3.7678             (X_U3.N5221778)    8.1247                 

(X_U3.N5221808)  689.7700             (X_U3.N5221816)  689.7700                 

(X_U3.N5221836)  689.7000             (X_U3.N5221878)    3.5000                 

(X_U3.N5231966)    6.0000             (X_U3.N5231976)    5.9997                 

(X_U3.N5231986)    6.0123             (X_U3.N5259537)    8.1247                 

(X_U3.N5263447)    8.7855             (X_U3.N5290336)    5.9543                 

(X_U3.N5290346)    5.9997             (X_U3.N5290356)    5.9997                 

(X_U5.CL_CLAMP)   10.6770             (X_U5.N5214286)   11.0000                 

(X_U5.N5220542)    5.9997             (X_U5.N5220544)   11.0000                 

(X_U5.N5220550)   11.0000             (X_U5.N5220566)    5.9997                 

(X_U5.N5220568)    5.9997             (X_U5.N5220570)   11.0000                 

(X_U5.N5220574)   11.0000             (X_U5.N5220596)   11.0000                 

(X_U5.N5220600)   12.1000             (X_U5.N5220612)    -.1000                 

(X_U5.N5220620)   11.0000             (X_U5.N5220634)   11.0000                 

(X_U5.N5220644)    5.9997             (X_U5.N5220690)    5.9997                 

(X_U5.N5220702)    5.9997             (X_U5.N5220724)    5.9997                 

(X_U5.N5220726)    5.9997             (X_U5.N5220768)   98.0000                 

(X_U5.N5220770)    5.9997             (X_U5.N5220772)    5.9997                 

(X_U5.N5220792)    5.9997             (X_U5.N5220798)    5.9997                 

(X_U5.N5220810)  -96.4000             (X_U5.N5220862)   66.0000                 

(X_U5.N5220866)    5.9997             (X_U5.N5220868)    5.9997                 

(X_U5.N5220886)    5.9997             (X_U5.N5220892)    5.9997                 

(X_U5.N5220904)  -54.0000             (X_U5.N5220930)   10.6780                 

(X_U5.N5220958)   11.8000             (X_U5.N5220962)     .2000                 

(X_U5.N5220990)     .2000             (X_U5.N5220994)   11.8000                 

(X_U5.N5221054)    5.9997             (X_U5.N5221060)    5.9997                 

(X_U5.N5221066)    5.9997             (X_U5.N5221108)    5.9994                 

(X_U5.N5221120)   10.4190             (X_U5.N5221190)   10.4190                 

(X_U5.N5221222)    8.1766             (X_U5.N5221242)   12.7770                 

(X_U5.N5221250)    8.1766             (X_U5.N5221254)    8.1766                 

(X_U5.N5221278)   12.7770             (X_U5.N5221286)   12.7770                 

(X_U5.N5221330)    5.9997             (X_U5.N5221352)   12.0000                 

(X_U5.N5221368) 6.006E-06             (X_U5.N5221462)   10.6770                 

(X_U5.N5221526)   10.6770             (X_U5.N5221534)   54.5870                 

(X_U5.N5221538)    6.1740             (X_U5.N5221574)   54.6120                 

(X_U5.N5221656)    6.4858             (X_U5.N5221668)   10.6780                 

(X_U5.N5221670)   10.6780             (X_U5.N5221694)   54.6240                 

(X_U5.N5221696)   54.6240             (X_U5.N5221736)    3.7678                 

(X_U5.N5221778)   10.6780             (X_U5.N5221808)   54.6240                 

(X_U5.N5221816)   54.6240             (X_U5.N5221836)   54.6190                 

(X_U5.N5221878)   11.0000             (X_U5.N5231966)    6.0000                 

(X_U5.N5231976)    5.9997             (X_U5.N5231986)    6.0123                 

(X_U5.N5259537)   10.6780             (X_U5.N5263447)   12.1330                 

(X_U5.N5290336)    6.0906             (X_U5.N5290346)    5.9997                 

(X_U5.N5290356)    5.9997             (X_U3.N53210501)  689.7700                

(X_U3.N53216461)    8.1247            (X_U3.N53229461)  689.7700                

(X_U5.N53210501)   54.6240            (X_U5.N53216461)   10.6780                

(X_U5.N53229461)   54.6240            (X_U3.CLAW_CLAMP)    8.1239               

(X_U5.CLAW_CLAMP)   10.6770           (X_U3.SW_OL_OPA2156)    5.9997            

(X_U5.SW_OL_OPA2156)    5.9997        




    VOLTAGE SOURCE CURRENTS
    NAME         CURRENT

    V_V1        -7.480E-02
    V_V2        -3.957E-11
    V_V3         1.215E-11
    V_V4        -3.859E-10
    V_V5         5.753E-11
    X_U3.V_VCM_MAX  -6.102E-12
    X_U3.V_VCM_MIN   6.100E-12
    X_U3.V_V_GRN   6.000E-11
    X_U3.V_V_GRP  -6.000E-11
    X_U3.V_V_ISCN   1.024E-10
    X_U3.V_V_ISCP  -9.200E-11
    X_U3.V_V_ORN   0.000E+00
    X_U3.V_V_ORP   0.000E+00
    X_U5.V_VCM_MAX  -6.100E-12
    X_U5.V_VCM_MIN   6.100E-12
    X_U5.V_V_GRN   6.000E-11
    X_U5.V_V_GRP  -6.000E-11
    X_U5.V_V_ISCN   1.024E-10
    X_U5.V_V_ISCP  -9.200E-11
    X_U5.V_V_ORN   0.000E+00
    X_U5.V_V_ORP   0.000E+00
    X_U6.Voff    1.773E-11
    X_U6.VCCVS1_in   0.000E+00
    X_U6.V1     -7.921E-05
    X_U6.VCONT   1.000E-03
    X_U3.X_H1.VH_H1   3.500E-02
    X_U3.X_H2.VH_H2  -2.099E-09
    X_U3.X_H3.VH_H3   2.518E-09
    X_U5.X_H1.VH_H1  -2.495E-07
    X_U5.X_H2.VH_H2  -2.102E-09
    X_U5.X_H3.VH_H3   2.507E-09

    TOTAL POWER DISSIPATION   8.98E-01  WATTS


ERROR(ORPSIM-15138): Convergence problem in Transient Analysis at Time =  2.491E-06.
         Time step =  214.3E-21, minimum allowable step size =  252.0E-21

  These voltages failed to converge:

    V(X_U3.N5221656)          =    6.085MV  \    6.253MV
    V(X_Q7.6)                 =  -264.37MV  \    13.73KV
    V(X_Q7.5)                 =  -264.37MV  \    13.55KV
    V(X_Q7.7)                 =  -264.35MV  \    34.19KV
    V(X_Q7.4)                 =  -264.52MV  \  -134.76KV
    V(X_Q7.8)                 =  -264.24MV  \   146.22KV
    V(N01754)                 =  -107.00MV  \   533.23KV
    V(X_Q8.6)                 =   -4.746MV  \   117.50KV
    V(X_Q8.5)                 =   -4.745MV  \   118.24KV
    V(X_Q8.7)                 =   -4.626MV  \   237.49KV
    V(X_Q8.4)                 =   -4.852MV  \    11.09KV
    V(X_Q8.8)                 =   -4.595MV  \   268.75KV
    V(X_Q10.6)                =    1.755MV  \    1.825MV
    V(X_Q10.5)                =    2.247KV  \    72.98KV
    V(X_Q10.7)                =   -3.486KV  \    67.25KV
    V(X_Q10.4)                =   347.84KV  \   418.53KV
    V(X_Q10.8)                =   196.85KV  \   267.53KV
    V(X_Q11.1)                =    -1.223V  \  -416.59mV
    V(X_Q11.10)               =     7.127V  \     7.913V
    V(X_Q11.2)                =    -2.686V  \    -1.880V
    V(X_Q11.20)               =    -2.688V  \    -1.902V
    V(X_Q11.3)                =   194.91mV  \     1.001V
    V(X_Q11.30)               =     7.772V  \     8.558V

  These supply currents failed to converge:

    I(X_U3.E_E1)              =  -124.66KA  \    14.75KA
    I(X_U5.E_E1)              =  -206.34mA  \  -144.27mA
    I(X_U5.E_E3)              =  -308.35uA  \  -311.73uA
    I(X_U3.X_U1.E3)           =    7.965uA  \   -1.090uA
    I(X_U6.Voff)              =    59.61nA  \    29.80nA
    I(X_U6.HCCVS1)            =   -1.391uA  \    1.640nA

  These devices failed to converge:
    X_Q11.Q1  



  Last node voltages tried were:

 NODE   VOLTAGE     NODE   VOLTAGE     NODE   VOLTAGE     NODE   VOLTAGE


(  VCC)   12.0000  (N00167)    9.0404 (N00415)   -6.0627 (N01016)   10.4510     

(N01127)    9.9386 (N01750)-193.4E+03 (N01754)-107.0E+06 (N01771)-193.9E+03     

(N01815)    3.5000 (N03553) 103.4E+03 (N08043)   11.0000 (N09487)   10.9370     

(N26891)    5.0000 (N27016)    0.0000 (N32736)    9.0746 (X_U6.8)    8.8921     

(X_U6.15)    9.0667                   (X_U6.18)    8.2750                       

(X_U6.20)    2.0391                   (X_U6.22)    1.1923                       

(X_U6.43)    9.0479                   (X_U6.46)    9.8323                       

(X_U6.69)    9.0585                   (X_U6.71)    9.0536                       

(X_U6.74)     .3960                   (X_U6.76)     .3960                       

(X_U6.79)    8.7469                   (X_U6.82)    9.0744                       

(X_U6.83)   10.4880                   (X_U6.86)   10.8190                       

(X_U6.N1)    0.0000                   (X_U6.N4)   -6.0627                       

(X_U3.MID)    5.9997                  (X_U3.V11)    7.8210                      

(X_U3.V12)    5.9997                  (X_U5.MID)    5.9997                      

(X_U5.V11)    5.9997                  (X_U5.V12)    5.9997                      

(X_U6.058)    -.0012                  (X_U6.065)   25.1200                      

(X_U6.070)  107.0000                  (X_U6.077)    8.7170                      

(X_U6.090)   10.8000                  (X_U6.092)   10.8000                      

(X_U6.HIZ)    8.7170                  (X_U3.ESDN)-2593.2000                     

(X_U3.ESDP)-2063.0000                 (X_U3.VCLP)   12.2640                     

(X_U5.ESDN)   10.9840                 (X_U5.ESDP)   10.9860                     

(X_U5.VCLP)   10.6760                 (X_U6.0121)    0.0000                     

(X_U6.0125)  100.4800                 (X_U6.0129)    8.6669                     

(X_U6.0139)    9.0604                 (X_U6.0141)    -.0012                     

(X_U6.0143)    9.0690                 (X_U6.0173)    2.4960                     

(X_U6.0180)    -.0012                 (X_U6.0187)    8.6669                     

(X_U6.VREF)   10.0000                 (X_U3.CLAMP)    7.9241                    

(X_U3.VCC_B)   12.0000                (X_U3.VEE_B) 6.000E-06                    

(X_U3.VIMON)   30.2040                (X_U5.CLAMP)   10.6780                    

(X_U5.VCC_B)   12.0000                (X_U5.VEE_B) 6.006E-06                    

(X_U5.VIMON)    5.9917                (X_U3.VOUT_S)  -19.5880                   

(X_U3.VSENSE)    7.9240               (X_U3.X_U1.3)    0.0000                   

(X_U3.X_U1.4)    0.0000               (X_U3.X_U1.5)    0.0000                   

(X_U3.X_U1.6)    0.0000               (X_U3.X_U1.7)     .8338                   

(X_U3.X_U1.8)     .8338               (X_U5.VOUT_S)   10.4200                   

(X_U5.VSENSE)   10.6780               (X_U5.X_U1.3)    0.0000                   

(X_U5.X_U1.4)    0.0000               (X_U5.X_U1.5)    0.0000                   

(X_U5.X_U1.6)    0.0000               (X_U5.X_U1.7)     .8338                   

(X_U5.X_U1.8)     .8338               (X_U3.VCC_CLP)   11.3290                  

(X_U3.VEE_CLP)     .2000              (X_U3.X_U36.3)    0.0000                  

(X_U3.X_U36.5)    0.0000              (X_U3.X_U37.3)    0.0000                  

(X_U3.X_U37.5)    0.0000              (X_U3.X_U38.1)-2063.0000                  

(X_U5.VCC_CLP)   11.8000              (X_U5.VEE_CLP)     .2001                  

(X_U5.X_U36.3)    0.0000              (X_U5.X_U36.5)    0.0000                  

(X_U5.X_U37.3)    0.0000              (X_U5.X_U37.5)    0.0000                  

(X_U5.X_U38.1)   10.9860              (X_U3.CL_CLAMP) 1207.9000                 

(X_U3.N5214286)-2063.0000             (X_U3.N5220542) -112.1200                 

(X_U3.N5220544)-2063.0000             (X_U3.N5220550)-2181.1000                 

(X_U3.N5220566)    5.9997             (X_U3.N5220568)    5.9986                 

(X_U3.N5220570)-2181.1000             (X_U3.N5220574)-2181.1000                 

(X_U3.N5220596)-2593.2000             (X_U3.N5220600)   12.1000                 

(X_U3.N5220612)    -.1000             (X_U3.N5220620)    -.1000                 

(X_U3.N5220634)    -.1000             (X_U3.N5220644) 259.3E+03                 

(X_U3.N5220690)    5.9997             (X_U3.N5220702)    5.9997                 

(X_U3.N5220724)   25.7860             (X_U3.N5220726)   25.7860                 

(X_U3.N5220768)   98.0000             (X_U3.N5220770)    5.9997                 

(X_U3.N5220772)    5.9997             (X_U3.N5220792)    5.9997                 

(X_U3.N5220798)    5.9997             (X_U3.N5220810)  -96.4000                 

(X_U3.N5220862)   66.0000             (X_U3.N5220866)    5.9997                 

(X_U3.N5220868)    5.9997             (X_U3.N5220886)    5.9997                 

(X_U3.N5220892)    5.9997             (X_U3.N5220904)  -54.0000                 

(X_U3.N5220930)    7.9240             (X_U3.N5220958)   11.3290                 

(X_U3.N5220962)     .2000             (X_U3.N5220990)     .2000                 

(X_U3.N5220994)   11.3290             (X_U3.N5221054)    6.1327                 

(X_U3.N5221060)    5.9997             (X_U3.N5221066)    6.9898                 

(X_U3.N5221108) 126.4E+03             (X_U3.N5221120)-193.4E+03                 

(X_U3.N5221190)-193.4E+03             (X_U3.N5221222)    7.9423                 

(X_U3.N5221242)   14.3640             (X_U3.N5221250)    9.7636                 

(X_U3.N5221254)    7.9423             (X_U3.N5221278)   14.3640                 

(X_U3.N5221286)   14.3640             (X_U3.N5221330)    5.9997                 

(X_U3.N5221352)   12.0000             (X_U3.N5221368) 6.006E-06                 

(X_U3.N5221462)    7.9207             (X_U3.N5221526) 1207.9000                 

(X_U3.N5221534) 35.68E+06             (X_U3.N5221538) 35.67E+06                 

(X_U3.N5221574) 400.0E+03             (X_U3.N5221656) 6.085E+06                 

(X_U3.N5221668)    7.9222             (X_U3.N5221670)    7.9219                 

(X_U3.N5221694) 9.953E+09             (X_U3.N5221696) 99.55E+06                 

(X_U3.N5221736)    3.7678             (X_U3.N5221778)    7.9203                 

(X_U3.N5221808) 99.54E+06             (X_U3.N5221816) 45.22E+06                 

(X_U3.N5221836) 45.16E+06             (X_U3.N5221878)-2063.0000                 

(X_U3.N5231966)    5.9990             (X_U3.N5231976)    5.9997                 

(X_U3.N5231986)    6.0123             (X_U3.N5259537)    7.9240                 

(X_U3.N5263447)    8.5176             (X_U3.N5290336)   -7.3963                 

(X_U3.N5290346)   -7.3203             (X_U3.N5290356) -112.3100                 

(X_U5.CL_CLAMP)   10.6760             (X_U5.N5214286)   10.9860                 

(X_U5.N5220542)    5.9987             (X_U5.N5220544)   10.9860                 

(X_U5.N5220550)   10.9850             (X_U5.N5220566)    5.9997                 

(X_U5.N5220568)    5.9987             (X_U5.N5220570)   10.9850                 

(X_U5.N5220574)   10.9840             (X_U5.N5220596)   10.9840                 

(X_U5.N5220600)   12.1000             (X_U5.N5220612)    -.1000                 

(X_U5.N5220620)   10.9860             (X_U5.N5220634)   10.9860                 

(X_U5.N5220644)    6.2044             (X_U5.N5220690)    5.9997                 

(X_U5.N5220702)    5.9997             (X_U5.N5220724)    5.9997                 

(X_U5.N5220726)    5.9997             (X_U5.N5220768)   98.0000                 

(X_U5.N5220770)    5.9997             (X_U5.N5220772)    5.9997                 

(X_U5.N5220792)    5.9997             (X_U5.N5220798)    5.9997                 

(X_U5.N5220810)  -96.4000             (X_U5.N5220862)   66.0000                 

(X_U5.N5220866)    5.9997             (X_U5.N5220868)    5.9997                 

(X_U5.N5220886)    5.9997             (X_U5.N5220892)    5.9997                 

(X_U5.N5220904)  -54.0000             (X_U5.N5220930)   10.6780                 

(X_U5.N5220958)   11.8000             (X_U5.N5220962)     .2001                 

(X_U5.N5220990)     .2001             (X_U5.N5220994)   11.8000                 

(X_U5.N5221054)    5.9997             (X_U5.N5221060)    5.9997                 

(X_U5.N5221066)    5.9997             (X_U5.N5221108)  121.1600                 

(X_U5.N5221120)   10.4510             (X_U5.N5221190)   10.4510                 

(X_U5.N5221222)    8.1764             (X_U5.N5221242)   12.7760                 

(X_U5.N5221250)    8.1764             (X_U5.N5221254)    8.1764                 

(X_U5.N5221278)   12.7760             (X_U5.N5221286)   12.7760                 

(X_U5.N5221330)    5.9997             (X_U5.N5221352)   12.0000                 

(X_U5.N5221368) 6.012E-06             (X_U5.N5221462)   10.6760                 

(X_U5.N5221526)   10.6760             (X_U5.N5221534)   48.7460                 

(X_U5.N5221538)     .3335             (X_U5.N5221574) 2358.2000                 

(X_U5.N5221656)   29.5230             (X_U5.N5221668)   10.6780                 

(X_U5.N5221670)   10.6780             (X_U5.N5221694)-1574.9000                 

(X_U5.N5221696)   38.1170             (X_U5.N5221736)    3.7678                 

(X_U5.N5221778)   10.6780             (X_U5.N5221808)   38.1170                 

(X_U5.N5221816)   41.0530             (X_U5.N5221836)   40.8200                 

(X_U5.N5221878)   10.9860             (X_U5.N5231966)    5.9990                 

(X_U5.N5231976)    5.9997             (X_U5.N5231986)    6.0123                 

(X_U5.N5259537)   10.6780             (X_U5.N5263447)   12.1330                 

(X_U5.N5290336)    6.0905             (X_U5.N5290346)    5.9996                 

(X_U5.N5290356)    5.9988             (X_U3.N53210501) 699.6E+03                

(X_U3.N53216461)    7.9171            (X_U3.N53229461) 13.34E+03                

(X_U5.N53210501)   43.4590            (X_U5.N53216461)   10.6780                

(X_U5.N53229461)   54.4100            (X_U3.CLAW_CLAMP) 1207.9000               

(X_U5.CLAW_CLAMP)   10.6760           (X_U3.SW_OL_OPA2156)    6.0008            

(X_U5.SW_OL_OPA2156)    5.9997        


**** Interrupt ****
